
 OpenBabel05042401512D

 30 27  0  0  0  0  0  0  0  0999 V2000
    0.4125    0.0000    0.0000 O   0  0  0  0  0  0  0  0  0  0  0  0
   -0.4125    0.0000    0.0000 Re  0  1  0  0  0  0  0  0  0  0  0  0
    3.0397   -1.6036    0.0000 C   0  0  0  0  0  0  0  0  0  0  0  0
    3.8498   -1.4477    0.0000 C   0  0  0  0  0  0  0  0  0  0  0  0
    4.1199   -0.6682    0.0000 N   0  0  0  0  0  0  0  0  0  0  0  0
    3.5798   -0.0445    0.0000 C   0  0  0  0  0  0  0  0  0  0  0  0
    2.7696   -0.2005    0.0000 C   0  0  0  0  0  0  0  0  0  0  0  0
    4.9300   -0.5123    0.0000 C   0  0  0  0  0  0  0  0  0  0  0  0
    5.2000    0.2673    0.0000 C   0  0  0  0  0  0  0  0  0  0  0  0
    6.0102    0.4232    0.0000 N   0  0  0  0  0  0  0  0  0  0  0  0
    6.2802    1.2027    0.0000 C   0  0  0  0  0  0  0  0  0  0  0  0
    7.0904    1.3586    0.0000 C   0  0  0  0  0  0  0  0  0  0  0  0
    7.3604    2.1382    0.0000 S   0  0  0  0  0  0  0  0  0  0  0  0
    6.5503   -0.2005    0.0000 C   0  0  0  0  0  0  0  0  0  0  0  0
    7.3604   -0.0445    0.0000 C   0  0  0  0  0  0  0  0  0  0  0  0
    7.9005   -0.6682    0.0000 S   0  5  0  0  0  0  0  0  0  0  0  0
   -2.3918   -6.9955    0.0000 C   0  0  0  0  0  0  0  0  0  0  0  0
   -1.5817   -6.8396    0.0000 C   0  0  0  0  0  0  0  0  0  0  0  0
   -1.3116   -6.0600    0.0000 N   0  0  0  0  0  0  0  0  0  0  0  0
   -1.8517   -5.4364    0.0000 C   0  0  0  0  0  0  0  0  0  0  0  0
   -2.6619   -5.5923    0.0000 C   0  0  0  0  0  0  0  0  0  0  0  0
   -0.5015   -5.9041    0.0000 C   0  0  0  0  0  0  0  0  0  0  0  0
   -0.2315   -5.1246    0.0000 C   0  0  0  0  0  0  0  0  0  0  0  0
    0.5787   -4.9687    0.0000 N   0  0  0  0  0  0  0  0  0  0  0  0
    0.8487   -4.1891    0.0000 C   0  0  0  0  0  0  0  0  0  0  0  0
    1.6588   -4.0332    0.0000 C   0  0  0  0  0  0  0  0  0  0  0  0
    1.9289   -3.2536    0.0000 S   0  5  0  0  0  0  0  0  0  0  0  0
    1.1188   -5.5923    0.0000 C   0  0  0  0  0  0  0  0  0  0  0  0
    1.9289   -5.4364    0.0000 C   0  0  0  0  0  0  0  0  0  0  0  0
    2.4690   -6.0600    0.0000 S   0  5  0  0  0  0  0  0  0  0  0  0
  1  2  2  0  0  0  0
  3  4  1  0  0  0  0
  4  5  1  0  0  0  0
  5  6  1  0  0  0  0
  5  8  1  0  0  0  0
  6  7  1  0  0  0  0
  8  9  1  0  0  0  0
  9 10  1  0  0  0  0
 10 11  1  0  0  0  0
 10 14  1  0  0  0  0
 11 12  1  0  0  0  0
 12 13  1  0  0  0  0
 14 15  1  0  0  0  0
 15 16  1  0  0  0  0
 17 18  1  0  0  0  0
 18 19  1  0  0  0  0
 19 20  1  0  0  0  0
 19 22  1  0  0  0  0
 20 21  1  0  0  0  0
 22 23  1  0  0  0  0
 23 24  1  0  0  0  0
 24 25  1  0  0  0  0
 24 28  1  0  0  0  0
 25 26  1  0  0  0  0
 26 27  1  0  0  0  0
 28 29  1  0  0  0  0
 29 30  1  0  0  0  0
M  ISO  1   2 186
M  CHG  4   2   3  16  -1  27  -1  30  -1
M  END
>  <DATABASE_ID>
DB18523

>  <DATABASE_NAME>
drugbank

>  <SMILES>
O=[186Re+3].CCN(CC)CCN(CCS)CC[S-].CCN(CC)CCN(CC[S-])CC[S-]

>  <INCHI_IDENTIFIER>
InChI=1S/2C10H24N2S2.O.Re/c2*1-3-11(4-2)5-6-12(7-9-13)8-10-14;;/h2*13-14H,3-10H2,1-2H3;;/q;;;+3/p-3/i;;;1+0

>  <INCHI_KEY>
WGNFIJYHYDDFMP-LDYDCSBASA-K

>  <FORMULA>
C20H45N4OReS4

>  <MOLECULAR_WEIGHT>
671.8

>  <EXACT_MASS>
671.20260831

>  <JCHEM_ACCEPTOR_COUNT>
2

>  <JCHEM_ATOM_COUNT>
75

>  <JCHEM_AVERAGE_NEUTRAL_MICROSPECIES_CHARGE>
1.9999963410272064

>  <JCHEM_AVERAGE_POLARIZABILITY>
28.807202339902766

>  <JCHEM_BIOAVAILABILITY>
0

>  <JCHEM_DONOR_COUNT>
1

>  <JCHEM_FORMAL_CHARGE>
0

>  <JCHEM_GHOSE_FILTER>
0

>  <JCHEM_IUPAC>
(2-{[2-(diethylamino)ethyl](2-sulfanidylethyl)amino}ethyl)sulfanide; (2-{[2-(diethylamino)ethyl](2-sulfanylethyl)amino}ethyl)sulfanide; oxo(186Re)rheniumtris(ylium)

>  <JCHEM_LOGP>
0.9484158429636613

>  <JCHEM_MDDR_LIKE_RULE>
0

>  <JCHEM_NEUTRAL_CHARGE>
3

>  <JCHEM_NUMBER_OF_RINGS>
0

>  <JCHEM_PHYSIOLOGICAL_CHARGE>
3

>  <JCHEM_PKA>
9.611918379519372

>  <JCHEM_PKA_STRONGEST_ACIDIC>
8.073113807043313

>  <JCHEM_PKA_STRONGEST_BASIC>
8.593773811572428

>  <JCHEM_POLAR_SURFACE_AREA>
6.48

>  <JCHEM_REFRACTIVITY>
73.19640000000001

>  <JCHEM_ROTATABLE_BOND_COUNT>
18

>  <JCHEM_RULE_OF_FIVE>
0

>  <JCHEM_TRADITIONAL_IUPAC>
(2-{[2-(diethylamino)ethyl](2-sulfanidylethyl)amino}ethyl)sulfanide; (2-{[2-(diethylamino)ethyl](2-sulfanylethyl)amino}ethyl)sulfanide; oxo(186Re)rheniumtris(ylium)

>  <JCHEM_VEBER_RULE>
0

>  <DRUGBANK_ID>
DB18523

>  <DRUG_GROUPS>
investigational

>  <GENERIC_NAME>
Rhenium (186-Re) obisbemeda

>  <SYNONYMS>
Rhenium (186re) obisbemeda

$$$$

 OpenBabel05042401512D

 50 49  0  0  1  0  0  0  0  0999 V2000
   12.5664    8.0802    0.0000 C   0  0  0  0  0  0  0  0  0  0  0  0
   11.8520    7.6677    0.0000 C   0  0  0  0  0  0  0  0  0  0  0  0
   11.1375    8.0802    0.0000 C   0  0  0  0  0  0  0  0  0  0  0  0
   11.8520    6.8427    0.0000 C   0  0  2  0  0  0  0  0  0  0  0  0
   11.1375    6.4302    0.0000 N   0  0  0  0  0  0  0  0  0  0  0  0
   10.4230    6.8427    0.0000 C   0  0  0  0  0  0  0  0  0  0  0  0
    9.7086    6.4302    0.0000 C   0  0  0  0  0  0  0  0  0  0  0  0
   10.4230    7.6677    0.0000 O   0  0  0  0  0  0  0  0  0  0  0  0
   12.5664    6.4302    0.0000 C   0  0  0  0  0  0  0  0  0  0  0  0
   12.5664    5.6052    0.0000 O   0  0  0  0  0  0  0  0  0  0  0  0
   13.2809    6.8427    0.0000 N   0  0  0  0  0  0  0  0  0  0  0  0
   13.9954    6.4302    0.0000 C   0  0  1  0  0  0  0  0  0  0  0  0
   13.9954    5.6052    0.0000 C   0  0  0  0  0  0  0  0  0  0  0  0
   14.7099    5.1927    0.0000 O   0  0  0  0  0  0  0  0  0  0  0  0
   14.7099    6.8427    0.0000 C   0  0  0  0  0  0  0  0  0  0  0  0
   14.7099    7.6677    0.0000 O   0  0  0  0  0  0  0  0  0  0  0  0
   15.4243    6.4302    0.0000 N   0  0  0  0  0  0  0  0  0  0  0  0
   16.1388    6.8427    0.0000 C   0  0  1  0  0  0  0  0  0  0  0  0
   16.1388    7.6677    0.0000 C   0  0  0  0  0  0  0  0  0  0  0  0
   16.8533    8.0802    0.0000 C   0  0  0  0  0  0  0  0  0  0  0  0
   16.8533    8.9052    0.0000 C   0  0  0  0  0  0  0  0  0  0  0  0
   17.5677    9.3177    0.0000 N   0  0  0  0  0  0  0  0  0  0  0  0
   17.5677   10.1427    0.0000 C   0  0  0  0  0  0  0  0  0  0  0  0
   16.8533   10.5552    0.0000 N   0  0  0  0  0  0  0  0  0  0  0  0
   18.2822   10.5552    0.0000 N   0  0  0  0  0  0  0  0  0  0  0  0
   16.8533    6.4302    0.0000 C   0  0  0  0  0  0  0  0  0  0  0  0
   16.8533    5.6052    0.0000 O   0  0  0  0  0  0  0  0  0  0  0  0
   17.5677    6.8427    0.0000 N   0  0  0  0  0  0  0  0  0  0  0  0
   18.2822    6.4302    0.0000 C   0  0  1  0  0  0  0  0  0  0  0  0
   18.2822    5.6052    0.0000 C   0  0  0  0  0  0  0  0  0  0  0  0
   17.5677    5.1927    0.0000 C   0  0  0  0  0  0  0  0  0  0  0  0
   17.5677    4.3677    0.0000 C   0  0  0  0  0  0  0  0  0  0  0  0
   16.8533    3.9552    0.0000 N   0  0  0  0  0  0  0  0  0  0  0  0
   16.8533    3.1302    0.0000 C   0  0  0  0  0  0  0  0  0  0  0  0
   17.5677    2.7177    0.0000 N   0  0  0  0  0  0  0  0  0  0  0  0
   16.1388    2.7177    0.0000 N   0  0  0  0  0  0  0  0  0  0  0  0
   18.9967    6.8427    0.0000 C   0  0  0  0  0  0  0  0  0  0  0  0
   18.9967    7.6677    0.0000 O   0  0  0  0  0  0  0  0  0  0  0  0
   19.7112    6.4302    0.0000 N   0  0  0  0  0  0  0  0  0  0  0  0
   20.4256    6.8427    0.0000 C   0  0  1  0  0  0  0  0  0  0  0  0
   21.1401    6.4302    0.0000 C   0  0  0  0  0  0  0  0  0  0  0  0
   21.8546    6.8427    0.0000 C   0  0  0  0  0  0  0  0  0  0  0  0
   22.5690    6.4302    0.0000 C   0  0  0  0  0  0  0  0  0  0  0  0
   23.2835    6.8427    0.0000 N   0  0  0  0  0  0  0  0  0  0  0  0
   23.9980    6.4302    0.0000 C   0  0  0  0  0  0  0  0  0  0  0  0
   24.7124    6.8427    0.0000 N   0  0  0  0  0  0  0  0  0  0  0  0
   23.9980    5.6052    0.0000 N   0  0  0  0  0  0  0  0  0  0  0  0
   20.4256    7.6677    0.0000 C   0  0  0  0  0  0  0  0  0  0  0  0
   21.1401    8.0802    0.0000 N   0  0  0  0  0  0  0  0  0  0  0  0
   19.7112    8.0802    0.0000 O   0  0  0  0  0  0  0  0  0  0  0  0
  1  2  1  0  0  0  0
  2  3  1  0  0  0  0
  4  2  1  1  0  0  0
  4  5  1  0  0  0  0
  4  9  1  0  0  0  0
  5  6  1  0  0  0  0
  6  7  1  0  0  0  0
  6  8  2  0  0  0  0
  9 10  2  0  0  0  0
  9 11  1  0  0  0  0
 12 11  1  6  0  0  0
 12 13  1  0  0  0  0
 12 15  1  0  0  0  0
 13 14  1  0  0  0  0
 15 16  2  0  0  0  0
 15 17  1  0  0  0  0
 18 17  1  1  0  0  0
 18 19  1  0  0  0  0
 18 26  1  0  0  0  0
 19 20  1  0  0  0  0
 20 21  1  0  0  0  0
 21 22  1  0  0  0  0
 22 23  1  0  0  0  0
 23 24  1  0  0  0  0
 23 25  2  0  0  0  0
 26 27  2  0  0  0  0
 26 28  1  0  0  0  0
 29 28  1  6  0  0  0
 29 30  1  0  0  0  0
 29 37  1  0  0  0  0
 30 31  1  0  0  0  0
 31 32  1  0  0  0  0
 32 33  1  0  0  0  0
 33 34  1  0  0  0  0
 34 35  1  0  0  0  0
 34 36  2  0  0  0  0
 37 38  2  0  0  0  0
 37 39  1  0  0  0  0
 40 39  1  6  0  0  0
 40 41  1  0  0  0  0
 40 48  1  0  0  0  0
 41 42  1  0  0  0  0
 42 43  1  0  0  0  0
 43 44  1  0  0  0  0
 44 45  1  0  0  0  0
 45 46  1  0  0  0  0
 45 47  2  0  0  0  0
 48 49  1  0  0  0  0
 48 50  2  0  0  0  0
M  END
>  <DATABASE_ID>
DB18345

>  <DATABASE_NAME>
drugbank

>  <SMILES>
CC(C)[C@H](NC(C)=O)C(=O)N[C@@H](CO)C(=O)N[C@@H](CCCNC(N)=N)C(=O)N[C@@H](CCCNC(N)=N)C(=O)N[C@@H](CCCNC(N)=N)C(N)=O

>  <INCHI_IDENTIFIER>
InChI=1S/C28H55N15O7/c1-14(2)20(39-15(3)45)25(50)43-19(13-44)24(49)42-18(9-6-12-38-28(34)35)23(48)41-17(8-5-11-37-27(32)33)22(47)40-16(21(29)46)7-4-10-36-26(30)31/h14,16-20,44H,4-13H2,1-3H3,(H2,29,46)(H,39,45)(H,40,47)(H,41,48)(H,42,49)(H,43,50)(H4,30,31,36)(H4,32,33,37)(H4,34,35,38)/t16-,17-,18-,19-,20-/m0/s1

>  <INCHI_KEY>
ZPSIKZCGZCSUNF-HVTWWXFQSA-N

>  <FORMULA>
C28H55N15O7

>  <MOLECULAR_WEIGHT>
713.846

>  <EXACT_MASS>
713.440889171

>  <JCHEM_ACCEPTOR_COUNT>
16

>  <JCHEM_ATOM_COUNT>
105

>  <JCHEM_AVERAGE_NEUTRAL_MICROSPECIES_CHARGE>
9.255193169077542

>  <JCHEM_AVERAGE_POLARIZABILITY>
72.96455809242924

>  <JCHEM_BIOAVAILABILITY>
0

>  <JCHEM_DONOR_COUNT>
16

>  <JCHEM_FORMAL_CHARGE>
0

>  <JCHEM_GHOSE_FILTER>
0

>  <JCHEM_IUPAC>
(2S)-5-carbamimidamido-2-[(2S)-5-carbamimidamido-2-[(2S)-5-carbamimidamido-2-[(2S)-2-[(2S)-2-acetamido-3-methylbutanamido]-3-hydroxypropanamido]pentanamido]pentanamido]pentanamide

>  <JCHEM_LOGP>
-6.603018371999998

>  <JCHEM_MDDR_LIKE_RULE>
0

>  <JCHEM_NEUTRAL_CHARGE>
3

>  <JCHEM_NUMBER_OF_RINGS>
0

>  <JCHEM_PHYSIOLOGICAL_CHARGE>
3

>  <JCHEM_PKA_STRONGEST_BASIC>
12.433881498032283

>  <JCHEM_POLAR_SURFACE_AREA>
394.5199999999999

>  <JCHEM_REFRACTIVITY>
211.7696

>  <JCHEM_ROTATABLE_BOND_COUNT>
24

>  <JCHEM_RULE_OF_FIVE>
0

>  <JCHEM_TRADITIONAL_IUPAC>
(2S)-5-carbamimidamido-2-[(2S)-5-carbamimidamido-2-[(2S)-5-carbamimidamido-2-[(2S)-2-[(2S)-2-acetamido-3-methylbutanamido]-3-hydroxypropanamido]pentanamido]pentanamido]pentanamide

>  <JCHEM_VEBER_RULE>
0

>  <DRUGBANK_ID>
DB18345

>  <DRUG_GROUPS>
investigational

>  <GENERIC_NAME>
CN-105

>  <SYNONYMS>
Ac-VSRRR- NH2

$$$$

 OpenBabel05042401512D

 30 32  0  0  0  0  0  0  0  0999 V2000
    2.9684   -2.8875    0.0000 N   0  0  0  0  0  0  0  0  0  0  0  0
    2.1434   -2.8875    0.0000 C   0  0  0  0  0  0  0  0  0  0  0  0
    2.1434   -2.0625    0.0000 C   0  0  0  0  0  0  0  0  0  0  0  0
    1.4289   -1.6500    0.0000 O   0  0  0  0  0  0  0  0  0  0  0  0
    1.3184   -2.8875    0.0000 C   0  0  0  0  0  0  0  0  0  0  0  0
    0.9059   -2.1730    0.0000 O   0  0  0  0  0  0  0  0  0  0  0  0
    2.1434   -3.7125    0.0000 C   0  0  0  0  0  0  0  0  0  0  0  0
    2.8579   -4.1250    0.0000 C   0  0  0  0  0  0  0  0  0  0  0  0
    2.8579   -4.9500    0.0000 C   0  0  0  0  0  0  0  0  0  0  0  0
    3.5724   -5.3625    0.0000 C   0  0  0  0  0  0  0  0  0  0  0  0
    3.5724   -6.1875    0.0000 C   0  0  0  0  0  0  0  0  0  0  0  0
    2.8579   -6.6000    0.0000 C   0  0  0  0  0  0  0  0  0  0  0  0
    2.8579   -7.4250    0.0000 S   0  0  0  0  0  0  0  0  0  0  0  0
    3.5724   -7.8375    0.0000 C   0  0  0  0  0  0  0  0  0  0  0  0
    4.2868   -7.4250    0.0000 C   0  0  0  0  0  0  0  0  0  0  0  0
    5.0013   -7.8375    0.0000 C   0  0  0  0  0  0  0  0  0  0  0  0
    5.0013   -8.6625    0.0000 C   0  0  0  0  0  0  0  0  0  0  0  0
    4.2868   -9.0750    0.0000 C   0  0  0  0  0  0  0  0  0  0  0  0
    4.2868   -9.9000    0.0000 O   0  0  0  0  0  0  0  0  0  0  0  0
    5.0013  -10.3125    0.0000 C   0  0  0  0  0  0  0  0  0  0  0  0
    5.0013  -11.1375    0.0000 C   0  0  0  0  0  0  0  0  0  0  0  0
    5.7158  -11.5500    0.0000 C   0  0  0  0  0  0  0  0  0  0  0  0
    5.7158  -12.3750    0.0000 C   0  0  0  0  0  0  0  0  0  0  0  0
    5.0013  -12.7875    0.0000 C   0  0  0  0  0  0  0  0  0  0  0  0
    4.2868  -12.3750    0.0000 C   0  0  0  0  0  0  0  0  0  0  0  0
    4.2868  -11.5500    0.0000 C   0  0  0  0  0  0  0  0  0  0  0  0
    3.5724   -8.6625    0.0000 C   0  0  0  0  0  0  0  0  0  0  0  0
    2.1434   -6.1875    0.0000 C   0  0  0  0  0  0  0  0  0  0  0  0
    2.1434   -5.3625    0.0000 C   0  0  0  0  0  0  0  0  0  0  0  0
    1.4289   -4.9500    0.0000 Cl  0  0  0  0  0  0  0  0  0  0  0  0
  1  2  1  0  0  0  0
  2  3  1  0  0  0  0
  2  5  1  0  0  0  0
  2  7  1  0  0  0  0
  3  4  1  0  0  0  0
  5  6  1  0  0  0  0
  7  8  1  0  0  0  0
  8  9  1  0  0  0  0
  9 10  2  0  0  0  0
  9 29  1  0  0  0  0
 10 11  1  0  0  0  0
 11 12  2  0  0  0  0
 12 13  1  0  0  0  0
 12 28  1  0  0  0  0
 13 14  1  0  0  0  0
 14 15  2  0  0  0  0
 14 27  1  0  0  0  0
 15 16  1  0  0  0  0
 16 17  2  0  0  0  0
 17 18  1  0  0  0  0
 18 19  1  0  0  0  0
 18 27  2  0  0  0  0
 19 20  1  0  0  0  0
 20 21  1  0  0  0  0
 21 22  2  0  0  0  0
 21 26  1  0  0  0  0
 22 23  1  0  0  0  0
 23 24  2  0  0  0  0
 24 25  1  0  0  0  0
 25 26  2  0  0  0  0
 28 29  2  0  0  0  0
 29 30  1  0  0  0  0
M  END
>  <DATABASE_ID>
DB18151

>  <DATABASE_NAME>
drugbank

>  <SMILES>
NC(CO)(CO)CCC1=CC=C(SC2=CC=CC(OCC3=CC=CC=C3)=C2)C=C1Cl

>  <INCHI_IDENTIFIER>
InChI=1S/C24H26ClNO3S/c25-23-14-22(10-9-19(23)11-12-24(26,16-27)17-28)30-21-8-4-7-20(13-21)29-15-18-5-2-1-3-6-18/h1-10,13-14,27-28H,11-12,15-17,26H2

>  <INCHI_KEY>
IINUNQPYJGJCJI-UHFFFAOYSA-N

>  <FORMULA>
C24H26ClNO3S

>  <MOLECULAR_WEIGHT>
443.99

>  <EXACT_MASS>
443.1321926

>  <JCHEM_ACCEPTOR_COUNT>
4

>  <JCHEM_ATOM_COUNT>
56

>  <JCHEM_AVERAGE_NEUTRAL_MICROSPECIES_CHARGE>
1.0007415634532126

>  <JCHEM_AVERAGE_POLARIZABILITY>
47.46078006392622

>  <JCHEM_BIOAVAILABILITY>
1

>  <JCHEM_DONOR_COUNT>
3

>  <JCHEM_FORMAL_CHARGE>
0

>  <JCHEM_GHOSE_FILTER>
1

>  <JCHEM_IUPAC>
2-amino-2-[2-(4-{[3-(benzyloxy)phenyl]sulfanyl}-2-chlorophenyl)ethyl]propane-1,3-diol

>  <JCHEM_LOGP>
4.795171873333333

>  <JCHEM_MDDR_LIKE_RULE>
1

>  <JCHEM_NEUTRAL_CHARGE>
1

>  <JCHEM_NUMBER_OF_RINGS>
3

>  <JCHEM_PHYSIOLOGICAL_CHARGE>
1

>  <JCHEM_PKA>
15.10976522148538

>  <JCHEM_PKA_STRONGEST_ACIDIC>
14.411362483210638

>  <JCHEM_PKA_STRONGEST_BASIC>
9.376691103395963

>  <JCHEM_POLAR_SURFACE_AREA>
75.71000000000001

>  <JCHEM_REFRACTIVITY>
124.59650000000002

>  <JCHEM_ROTATABLE_BOND_COUNT>
10

>  <JCHEM_RULE_OF_FIVE>
1

>  <JCHEM_TRADITIONAL_IUPAC>
krp-203 free base

>  <JCHEM_VEBER_RULE>
0

>  <DRUGBANK_ID>
DB18151

>  <DRUG_GROUPS>
investigational

>  <GENERIC_NAME>
Mocravimod

>  <SYNONYMS>
1,3-propanediol, 2-amino-2-(2-(2-chloro-4-((3-(phenylmethoxy)phenyl)thio)phenyl)ethyl)-; 2-amino-2-(2-(2-chloro-4-(3-benzyloxyphenylthio)phenyl)ethyl)-1,3-propanediol; Krp-203 free base

>  <SALTS>
Mocravimod hydrochloride

$$$$

 OpenBabel05042401512D

 22 23  0  0  0  0  0  0  0  0999 V2000
   -2.3848    0.1106    0.0000 O   0  0  0  0  0  0  0  0  0  0  0  0
   -2.0492   -0.6431    0.0000 N   0  0  0  0  0  0  0  0  0  0  0  0
   -1.2288   -0.7293    0.0000 C   0  0  0  0  0  0  0  0  0  0  0  0
   -0.7438   -0.0619    0.0000 O   0  0  0  0  0  0  0  0  0  0  0  0
   -0.8932   -1.4830    0.0000 C   0  0  0  0  0  0  0  0  0  0  0  0
   -0.0862   -1.6545    0.0000 C   0  0  0  0  0  0  0  0  0  0  0  0
    0.0000   -2.4750    0.0000 C   0  0  0  0  0  0  0  0  0  0  0  0
    0.7145   -2.8875    0.0000 C   0  0  0  0  0  0  0  0  0  0  0  0
    1.4289   -2.4750    0.0000 C   0  0  0  0  0  0  0  0  0  0  0  0
    2.1434   -2.8875    0.0000 N   0  0  0  0  0  0  0  0  0  0  0  0
    2.8579   -2.4750    0.0000 C   0  0  0  0  0  0  0  0  0  0  0  0
    2.8579   -1.6500    0.0000 O   0  0  0  0  0  0  0  0  0  0  0  0
    3.5724   -2.8875    0.0000 C   0  0  0  0  0  0  0  0  0  0  0  0
    4.2868   -2.4750    0.0000 C   0  0  0  0  0  0  0  0  0  0  0  0
    5.0013   -2.8875    0.0000 C   0  0  0  0  0  0  0  0  0  0  0  0
    5.0013   -3.7125    0.0000 C   0  0  0  0  0  0  0  0  0  0  0  0
    5.7158   -4.1250    0.0000 Cl  0  0  0  0  0  0  0  0  0  0  0  0
    4.2868   -4.1250    0.0000 C   0  0  0  0  0  0  0  0  0  0  0  0
    4.2868   -4.9500    0.0000 Cl  0  0  0  0  0  0  0  0  0  0  0  0
    3.5724   -3.7125    0.0000 C   0  0  0  0  0  0  0  0  0  0  0  0
   -0.7537   -2.8106    0.0000 O   0  0  0  0  0  0  0  0  0  0  0  0
   -1.3057   -2.1975    0.0000 N   0  0  0  0  0  0  0  0  0  0  0  0
  1  2  1  0  0  0  0
  2  3  1  0  0  0  0
  3  4  2  0  0  0  0
  3  5  1  0  0  0  0
  5  6  1  0  0  0  0
  5 22  2  0  0  0  0
  6  7  2  0  0  0  0
  7  8  1  0  0  0  0
  7 21  1  0  0  0  0
  8  9  1  0  0  0  0
  9 10  1  0  0  0  0
 10 11  1  0  0  0  0
 11 12  2  0  0  0  0
 11 13  1  0  0  0  0
 13 14  2  0  0  0  0
 13 20  1  0  0  0  0
 14 15  1  0  0  0  0
 15 16  2  0  0  0  0
 16 17  1  0  0  0  0
 16 18  1  0  0  0  0
 18 19  1  0  0  0  0
 18 20  2  0  0  0  0
 21 22  1  0  0  0  0
M  END
>  <DATABASE_ID>
DB18068

>  <DATABASE_NAME>
drugbank

>  <SMILES>
ONC(=O)C1=NOC(CCNC(=O)C2=CC=C(Cl)C(Cl)=C2)=C1

>  <INCHI_IDENTIFIER>
InChI=1S/C13H11Cl2N3O4/c14-9-2-1-7(5-10(9)15)12(19)16-4-3-8-6-11(18-22-8)13(20)17-21/h1-2,5-6,21H,3-4H2,(H,16,19)(H,17,20)

>  <INCHI_KEY>
JFGOILLZIAIYGA-UHFFFAOYSA-N

>  <FORMULA>
C13H11Cl2N3O4

>  <MOLECULAR_WEIGHT>
344.15

>  <EXACT_MASS>
343.0126612

>  <JCHEM_ACCEPTOR_COUNT>
4

>  <JCHEM_ATOM_COUNT>
33

>  <JCHEM_AVERAGE_NEUTRAL_MICROSPECIES_CHARGE>
0.5568981853447417

>  <JCHEM_AVERAGE_POLARIZABILITY>
32.25109736920646

>  <JCHEM_BIOAVAILABILITY>
1

>  <JCHEM_DONOR_COUNT>
3

>  <JCHEM_FORMAL_CHARGE>
0

>  <JCHEM_GHOSE_FILTER>
1

>  <JCHEM_IUPAC>
5-{2-[(3,4-dichlorophenyl)formamido]ethyl}-N-hydroxy-1,2-oxazole-3-carboxamide

>  <JCHEM_LOGP>
1.5579398009999998

>  <JCHEM_MDDR_LIKE_RULE>
0

>  <JCHEM_NEUTRAL_CHARGE>
0

>  <JCHEM_NUMBER_OF_RINGS>
2

>  <JCHEM_PHYSIOLOGICAL_CHARGE>
0

>  <JCHEM_PKA>
14.398665965072412

>  <JCHEM_PKA_STRONGEST_ACIDIC>
8.082286629580462

>  <JCHEM_PKA_STRONGEST_BASIC>
0.026908368566154382

>  <JCHEM_POLAR_SURFACE_AREA>
104.46000000000001

>  <JCHEM_REFRACTIVITY>
80.91120000000001

>  <JCHEM_ROTATABLE_BOND_COUNT>
5

>  <JCHEM_RULE_OF_FIVE>
1

>  <JCHEM_TRADITIONAL_IUPAC>
5-{2-[(3,4-dichlorophenyl)formamido]ethyl}-N-hydroxy-1,2-oxazole-3-carboxamide

>  <JCHEM_VEBER_RULE>
0

>  <DRUGBANK_ID>
DB18068

>  <DRUG_GROUPS>
investigational

>  <GENERIC_NAME>
AVS-100

>  <SYNONYMS>
3-Isoxazolecarboxamide, 5-[2-[(3,4-dichlorobenzoyl)amino]ethyl]-N-hydroxy-; 5-[2-[(3,4-dichlorobenzoyl)amino]ethyl]-N-hydroxy-3-isoxazolecarboxamide

$$$$

 OpenBabel05042401512D

 36 41  0  0  1  0  0  0  0  0999 V2000
    4.0935   -4.3738    0.0000 C   0  0  0  0  0  0  0  0  0  0  0  0
    4.5784   -3.7064    0.0000 C   0  0  0  0  0  0  0  0  0  0  0  0
    4.2428   -2.9527    0.0000 C   0  0  0  0  0  0  0  0  0  0  0  0
    4.7278   -2.2852    0.0000 C   0  0  0  0  0  0  0  0  0  0  0  0
    5.5482   -2.3715    0.0000 C   0  0  0  0  0  0  0  0  0  0  0  0
    5.8838   -3.1252    0.0000 C   0  0  0  0  0  0  0  0  0  0  0  0
    5.3989   -3.7926    0.0000 N   0  0  0  0  0  0  0  0  0  0  0  0
    4.3922   -1.5316    0.0000 C   0  0  0  0  0  0  0  0  0  0  0  0
    3.5852   -1.3600    0.0000 N   0  0  0  0  0  0  0  0  0  0  0  0
    3.4990   -0.5396    0.0000 C   0  0  0  0  0  0  0  0  0  0  0  0
    4.2527   -0.2040    0.0000 C   0  0  0  0  0  0  0  0  0  0  0  0
    4.8047   -0.8171    0.0000 O   0  0  0  0  0  0  0  0  0  0  0  0
    2.7845   -0.1271    0.0000 C   0  0  0  0  0  0  0  0  0  0  0  0
    2.0701   -0.5396    0.0000 O   0  0  0  0  0  0  0  0  0  0  0  0
    2.7845    0.6979    0.0000 N   0  0  0  0  0  0  0  0  0  0  0  0
    2.0701    1.1104    0.0000 C   0  0  0  0  0  0  0  0  0  0  0  0
    1.3556    0.6979    0.0000 C   0  0  0  0  0  0  0  0  0  0  0  0
    0.6411    1.1104    0.0000 C   0  0  0  0  0  0  0  0  0  0  0  0
   -0.1435    0.8555    0.0000 O   0  0  0  0  0  0  0  0  0  0  0  0
   -0.6284    1.5229    0.0000 C   0  0  0  0  0  0  0  0  0  0  0  0
   -0.1435    2.1904    0.0000 N   0  0  0  0  0  0  0  0  0  0  0  0
    0.6411    1.9354    0.0000 C   0  0  0  0  0  0  0  0  0  0  0  0
    1.3556    2.3479    0.0000 N   0  0  0  0  0  0  0  0  0  0  0  0
    2.0701    1.9354    0.0000 C   0  0  0  0  0  0  0  0  0  0  0  0
    2.7845    2.3479    0.0000 N   0  0  0  0  0  0  0  0  0  0  0  0
    2.8708    3.1684    0.0000 C   0  0  0  0  0  0  0  0  0  0  0  0
    3.6777    3.3400    0.0000 C   0  0  0  0  0  0  0  0  0  0  0  0
    4.0902    2.6255    0.0000 C   0  0  1  0  0  0  0  0  0  0  0  0
    4.9107    2.5392    0.0000 O   0  0  0  0  0  0  0  0  0  0  0  0
    3.5382    2.0124    0.0000 C   0  0  0  0  0  0  0  0  0  0  0  0
   -1.4534    1.5229    0.0000 N   0  0  0  0  0  0  0  0  0  0  0  0
   -1.8659    0.8085    0.0000 C   0  0  0  0  0  0  0  0  0  0  0  0
   -2.6909    0.8085    0.0000 C   0  0  0  0  0  0  0  0  0  0  0  0
   -3.1034    1.5229    0.0000 O   0  0  0  0  0  0  0  0  0  0  0  0
   -2.6909    2.2374    0.0000 C   0  0  0  0  0  0  0  0  0  0  0  0
   -1.8659    2.2374    0.0000 C   0  0  0  0  0  0  0  0  0  0  0  0
  1  2  1  0  0  0  0
  2  3  2  0  0  0  0
  2  7  1  0  0  0  0
  3  4  1  0  0  0  0
  4  5  2  0  0  0  0
  4  8  1  0  0  0  0
  5  6  1  0  0  0  0
  6  7  2  0  0  0  0
  8  9  2  0  0  0  0
  8 12  1  0  0  0  0
  9 10  1  0  0  0  0
 10 11  2  0  0  0  0
 10 13  1  0  0  0  0
 11 12  1  0  0  0  0
 13 14  2  0  0  0  0
 13 15  1  0  0  0  0
 15 16  1  0  0  0  0
 16 17  1  0  0  0  0
 16 24  2  0  0  0  0
 17 18  2  0  0  0  0
 18 19  1  0  0  0  0
 18 22  1  0  0  0  0
 19 20  1  0  0  0  0
 20 21  2  0  0  0  0
 20 31  1  0  0  0  0
 21 22  1  0  0  0  0
 22 23  2  0  0  0  0
 23 24  1  0  0  0  0
 24 25  1  0  0  0  0
 25 26  1  0  0  0  0
 25 30  1  0  0  0  0
 26 27  1  0  0  0  0
 28 27  1  0  0  0  0
 28 29  1  1  0  0  0
 28 30  1  0  0  0  0
 31 32  1  0  0  0  0
 31 36  1  0  0  0  0
 32 33  1  0  0  0  0
 33 34  1  0  0  0  0
 34 35  1  0  0  0  0
 35 36  1  0  0  0  0
M  END
>  <DATABASE_ID>
DB18060

>  <DATABASE_NAME>
drugbank

>  <SMILES>
CC1=CC(=CC=N1)C1=NC(=CO1)C(=O)NC1=C(N=C2N=C(OC2=C1)N1CCOCC1)N1CC[C@@H](O)C1

>  <INCHI_IDENTIFIER>
InChI=1S/C24H25N7O5/c1-14-10-15(2-4-25-14)23-27-18(13-35-23)22(33)26-17-11-19-20(28-21(17)31-5-3-16(32)12-31)29-24(36-19)30-6-8-34-9-7-30/h2,4,10-11,13,16,32H,3,5-9,12H2,1H3,(H,26,33)/t16-/m1/s1

>  <INCHI_KEY>
SJHNWSAWWOAWJH-MRXNPFEDSA-N

>  <FORMULA>
C24H25N7O5

>  <MOLECULAR_WEIGHT>
491.508

>  <EXACT_MASS>
491.191716933

>  <JCHEM_ACCEPTOR_COUNT>
9

>  <JCHEM_ATOM_COUNT>
61

>  <JCHEM_AVERAGE_NEUTRAL_MICROSPECIES_CHARGE>
2.0027261437417363

>  <JCHEM_AVERAGE_POLARIZABILITY>
52.40755928021936

>  <JCHEM_BIOAVAILABILITY>
1

>  <JCHEM_DONOR_COUNT>
2

>  <JCHEM_FORMAL_CHARGE>
0

>  <JCHEM_GHOSE_FILTER>
0

>  <JCHEM_IUPAC>
N-{5-[(3R)-3-hydroxypyrrolidin-1-yl]-2-(morpholin-4-yl)-[1,3]oxazolo[4,5-b]pyridin-6-yl}-2-(2-methylpyridin-4-yl)-1,3-oxazole-4-carboxamide

>  <JCHEM_LOGP>
1.3196866956666666

>  <JCHEM_MDDR_LIKE_RULE>
0

>  <JCHEM_NEUTRAL_CHARGE>
0

>  <JCHEM_NUMBER_OF_RINGS>
6

>  <JCHEM_PHYSIOLOGICAL_CHARGE>
0

>  <JCHEM_PKA>
14.835268505675714

>  <JCHEM_PKA_STRONGEST_ACIDIC>
12.922011224842723

>  <JCHEM_PKA_STRONGEST_BASIC>
3.5170812331407664

>  <JCHEM_POLAR_SURFACE_AREA>
142.88

>  <JCHEM_REFRACTIVITY>
142.1235

>  <JCHEM_ROTATABLE_BOND_COUNT>
5

>  <JCHEM_RULE_OF_FIVE>
1

>  <JCHEM_TRADITIONAL_IUPAC>
N-{5-[(3R)-3-hydroxypyrrolidin-1-yl]-2-(morpholin-4-yl)-[1,3]oxazolo[4,5-b]pyridin-6-yl}-2-(2-methylpyridin-4-yl)-1,3-oxazole-4-carboxamide

>  <JCHEM_VEBER_RULE>
0

>  <DRUGBANK_ID>
DB18060

>  <DRUG_GROUPS>
investigational

>  <GENERIC_NAME>
Emavusertib

>  <SYNONYMS>
4-oxazolecarboxamide, n-(5-((3r)-3-hydroxy-1-pyrrolidinyl)-2-(4-morpholinyl)oxazolo(4,5-b)pyridin-6-yl)-2-(2-methyl-4-pyridinyl)-

$$$$

 OpenBabel05042401512D

 44 46  0  0  1  0  0  0  0  0999 V2000
   14.5572  -10.8662    0.0000 C   0  0  0  0  0  0  0  0  0  0  0  0
   13.8470  -11.2860    0.0000 C   0  0  0  0  0  0  0  0  0  0  0  0
   14.3387  -11.9484    0.0000 C   0  0  0  0  0  0  0  0  0  0  0  0
   14.0109  -12.7055    0.0000 C   0  0  0  0  0  0  0  0  0  0  0  0
   14.5026  -13.3679    0.0000 O   0  0  0  0  0  0  0  0  0  0  0  0
   13.1913  -12.8001    0.0000 C   0  0  0  0  0  0  0  0  0  0  0  0
   12.6996  -12.1377    0.0000 C   0  0  0  0  0  0  0  0  0  0  0  0
   11.8800  -12.2323    0.0000 C   0  0  0  0  0  0  0  0  0  0  0  0
   13.0274  -11.3806    0.0000 C   0  0  0  0  0  0  0  0  0  0  0  0
   12.5357  -10.7182    0.0000 C   0  0  0  0  0  0  0  0  0  0  0  0
   12.8635   -9.9611    0.0000 C   0  0  2  0  0  0  0  0  0  0  0  0
   12.3718   -9.2986    0.0000 N   0  0  0  0  0  0  0  0  0  0  0  0
   11.5522   -9.3933    0.0000 C   0  0  0  0  0  0  0  0  0  0  0  0
   11.2244  -10.1504    0.0000 O   0  0  0  0  0  0  0  0  0  0  0  0
   11.0605   -8.7308    0.0000 C   0  0  2  0  0  0  0  0  0  0  0  0
   11.3883   -7.9738    0.0000 N   0  0  0  0  0  0  0  0  0  0  0  0
   10.2409   -8.8255    0.0000 C   0  0  0  0  0  0  0  0  0  0  0  0
    9.7492   -8.1630    0.0000 C   0  0  0  0  0  0  0  0  0  0  0  0
    8.9296   -8.2577    0.0000 C   0  0  0  0  0  0  0  0  0  0  0  0
    8.4379   -7.5952    0.0000 N   0  0  0  0  0  0  0  0  0  0  0  0
    7.6183   -7.6899    0.0000 C   0  0  0  0  0  0  0  0  0  0  0  0
    7.1266   -7.0274    0.0000 N   0  0  0  0  0  0  0  0  0  0  0  0
    7.2905   -8.4469    0.0000 N   0  0  0  0  0  0  0  0  0  0  0  0
   13.6830   -9.8665    0.0000 C   0  0  0  0  0  0  0  0  0  0  0  0
   14.0109   -9.1094    0.0000 O   0  0  0  0  0  0  0  0  0  0  0  0
   14.1748  -10.5289    0.0000 N   0  0  0  0  0  0  0  0  0  0  0  0
   14.9943  -10.4343    0.0000 C   0  0  1  0  0  0  0  0  0  0  0  0
   15.3222   -9.6772    0.0000 C   0  0  0  0  0  0  0  0  0  0  0  0
   14.8304   -9.0147    0.0000 C   0  0  0  0  0  0  0  0  0  0  0  0
   15.1582   -8.2577    0.0000 C   0  0  0  0  0  0  0  0  0  0  0  0
   14.6665   -7.5952    0.0000 C   0  0  0  0  0  0  0  0  0  0  0  0
   14.9943   -6.8382    0.0000 N   0  0  0  0  0  0  0  0  0  0  0  0
   15.4861  -11.0967    0.0000 C   0  0  0  0  0  0  0  0  0  0  0  0
   16.3110  -11.0882    0.0000 N   0  0  0  0  0  0  0  0  0  0  0  0
   16.5740  -11.8702    0.0000 C   0  0  0  0  0  0  0  0  0  0  0  0
   17.3612  -12.1171    0.0000 C   0  0  0  0  0  0  0  0  0  0  0  0
   17.5410  -12.9223    0.0000 C   0  0  0  0  0  0  0  0  0  0  0  0
   18.3281  -13.1692    0.0000 C   0  0  0  0  0  0  0  0  0  0  0  0
   18.5079  -13.9743    0.0000 C   0  0  0  0  0  0  0  0  0  0  0  0
   17.9005  -14.5326    0.0000 C   0  0  0  0  0  0  0  0  0  0  0  0
   17.1133  -14.2857    0.0000 C   0  0  0  0  0  0  0  0  0  0  0  0
   16.9335  -13.4806    0.0000 C   0  0  0  0  0  0  0  0  0  0  0  0
   15.9115  -12.3619    0.0000 N   0  0  0  0  0  0  0  0  0  0  0  0
   15.2392  -11.8839    0.0000 O   0  0  0  0  0  0  0  0  0  0  0  0
  1  2  1  0  0  0  0
  2  3  2  0  0  0  0
  2  9  1  0  0  0  0
  3  4  1  0  0  0  0
  4  5  1  0  0  0  0
  4  6  2  0  0  0  0
  6  7  1  0  0  0  0
  7  8  1  0  0  0  0
  7  9  2  0  0  0  0
  9 10  1  0  0  0  0
 11 10  1  6  0  0  0
 11 12  1  0  0  0  0
 11 24  1  0  0  0  0
 12 13  1  0  0  0  0
 13 14  2  0  0  0  0
 15 13  1  1  0  0  0
 15 16  1  0  0  0  0
 15 17  1  0  0  0  0
 17 18  1  0  0  0  0
 18 19  1  0  0  0  0
 19 20  1  0  0  0  0
 20 21  1  0  0  0  0
 21 22  1  0  0  0  0
 21 23  2  0  0  0  0
 24 25  2  0  0  0  0
 24 26  1  0  0  0  0
 27 26  1  1  0  0  0
 27 28  1  0  0  0  0
 27 33  1  0  0  0  0
 28 29  1  0  0  0  0
 29 30  1  0  0  0  0
 30 31  1  0  0  0  0
 31 32  1  0  0  0  0
 33 34  2  0  0  0  0
 33 44  1  0  0  0  0
 34 35  1  0  0  0  0
 35 36  1  0  0  0  0
 35 43  2  0  0  0  0
 36 37  1  0  0  0  0
 37 38  2  0  0  0  0
 37 42  1  0  0  0  0
 38 39  1  0  0  0  0
 39 40  2  0  0  0  0
 40 41  1  0  0  0  0
 41 42  2  0  0  0  0
 43 44  1  0  0  0  0
M  END
>  <DATABASE_ID>
DB18037

>  <DATABASE_NAME>
drugbank

>  <SMILES>
CC1=CC(O)=CC(C)=C1C[C@H](NC(=O)[C@H](N)CCCNC(N)=N)C(=O)N[C@@H](CCCCN)C1=NC(CC2=CC=CC=C2)=NO1

>  <INCHI_IDENTIFIER>
InChI=1S/C31H45N9O4/c1-19-15-22(41)16-20(2)23(19)18-26(38-28(42)24(33)11-8-14-36-31(34)35)29(43)37-25(12-6-7-13-32)30-39-27(40-44-30)17-21-9-4-3-5-10-21/h3-5,9-10,15-16,24-26,41H,6-8,11-14,17-18,32-33H2,1-2H3,(H,37,43)(H,38,42)(H4,34,35,36)/t24-,25+,26+/m1/s1

>  <INCHI_KEY>
XEYINAAYNXIXPY-ZNZIZOMTSA-N

>  <FORMULA>
C31H45N9O4

>  <MOLECULAR_WEIGHT>
607.76

>  <EXACT_MASS>
607.359450965

>  <JCHEM_ACCEPTOR_COUNT>
10

>  <JCHEM_ATOM_COUNT>
89

>  <JCHEM_AVERAGE_NEUTRAL_MICROSPECIES_CHARGE>
4.849805668495024

>  <JCHEM_AVERAGE_POLARIZABILITY>
66.5765044690778

>  <JCHEM_BIOAVAILABILITY>
0

>  <JCHEM_DONOR_COUNT>
8

>  <JCHEM_FORMAL_CHARGE>
0

>  <JCHEM_GHOSE_FILTER>
0

>  <JCHEM_IUPAC>
(2R)-2-amino-N-[(1S)-1-{[(1S)-5-amino-1-(3-benzyl-1,2,4-oxadiazol-5-yl)pentyl]carbamoyl}-2-(4-hydroxy-2,6-dimethylphenyl)ethyl]-5-carbamimidamidopentanamide

>  <JCHEM_LOGP>
1.8483507697495183

>  <JCHEM_MDDR_LIKE_RULE>
1

>  <JCHEM_NEUTRAL_CHARGE>
3

>  <JCHEM_NUMBER_OF_RINGS>
3

>  <JCHEM_PHYSIOLOGICAL_CHARGE>
3

>  <JCHEM_PKA>
12.494279893540616

>  <JCHEM_PKA_STRONGEST_ACIDIC>
9.618329143508491

>  <JCHEM_PKA_STRONGEST_BASIC>
11.89304324004004

>  <JCHEM_POLAR_SURFACE_AREA>
231.28999999999996

>  <JCHEM_REFRACTIVITY>
180.32979999999995

>  <JCHEM_ROTATABLE_BOND_COUNT>
17

>  <JCHEM_RULE_OF_FIVE>
0

>  <JCHEM_TRADITIONAL_IUPAC>
(2R)-2-amino-N-[(1S)-1-{[(1S)-5-amino-1-(3-benzyl-1,2,4-oxadiazol-5-yl)pentyl]carbamoyl}-2-(4-hydroxy-2,6-dimethylphenyl)ethyl]-5-carbamimidamidopentanamide

>  <JCHEM_VEBER_RULE>
0

>  <DRUGBANK_ID>
DB18037

>  <DRUG_GROUPS>
investigational

>  <GENERIC_NAME>
SBT-272

$$$$

 OpenBabel05042401512D

 30 32  0  0  1  0  0  0  0  0999 V2000
   -3.5479    2.0202    0.0000 N   0  0  0  0  0  0  0  0  0  0  0  0
   -2.8334    2.4327    0.0000 C   0  0  0  0  0  0  0  0  0  0  0  0
   -2.8334    3.2577    0.0000 N   0  0  0  0  0  0  0  0  0  0  0  0
   -2.1190    2.0202    0.0000 N   0  0  0  0  0  0  0  0  0  0  0  0
   -1.4045    2.4327    0.0000 C   0  0  0  0  0  0  0  0  0  0  0  0
   -1.4045    3.2577    0.0000 C   0  0  0  0  0  0  0  0  0  0  0  0
   -0.6900    3.6702    0.0000 C   0  0  0  0  0  0  0  0  0  0  0  0
    0.0244    3.2577    0.0000 C   0  0  0  0  0  0  0  0  0  0  0  0
    0.8091    3.5126    0.0000 C   0  0  0  0  0  0  0  0  0  0  0  0
    1.2940    2.8452    0.0000 N   0  0  0  0  0  0  0  0  0  0  0  0
    2.1190    2.8452    0.0000 C   0  0  0  0  0  0  0  0  0  0  0  0
    2.5315    2.1307    0.0000 C   0  0  0  0  0  0  0  0  0  0  0  0
    3.3565    2.1307    0.0000 C   0  0  0  0  0  0  0  0  0  0  0  0
    3.7690    2.8452    0.0000 O   0  0  0  0  0  0  0  0  0  0  0  0
    3.7690    1.4162    0.0000 N   0  0  0  0  0  0  0  0  0  0  0  0
    4.5940    1.4162    0.0000 C   0  0  3  0  0  0  0  0  0  0  0  0
    5.0065    2.1307    0.0000 C   0  0  0  0  0  0  0  0  0  0  0  0
    4.5940    2.8452    0.0000 C   0  0  0  0  0  0  0  0  0  0  0  0
    3.9265    3.3301    0.0000 O   0  0  0  0  0  0  0  0  0  0  0  0
    5.0065    3.5596    0.0000 O   0  0  0  0  0  0  0  0  0  0  0  0
    5.0065    0.7018    0.0000 C   0  0  0  0  0  0  0  0  0  0  0  0
    5.8315    0.7018    0.0000 C   0  0  0  0  0  0  0  0  0  0  0  0
    6.2440   -0.0127    0.0000 C   0  0  0  0  0  0  0  0  0  0  0  0
    5.8315   -0.7272    0.0000 C   0  0  0  0  0  0  0  0  0  0  0  0
    5.0065   -0.7272    0.0000 N   0  0  0  0  0  0  0  0  0  0  0  0
    4.5940   -0.0127    0.0000 C   0  0  0  0  0  0  0  0  0  0  0  0
    0.8091    2.1777    0.0000 C   0  0  0  0  0  0  0  0  0  0  0  0
    1.0640    1.3931    0.0000 O   0  0  0  0  0  0  0  0  0  0  0  0
    0.0244    2.4327    0.0000 C   0  0  0  0  0  0  0  0  0  0  0  0
   -0.6900    2.0202    0.0000 C   0  0  0  0  0  0  0  0  0  0  0  0
  1  2  1  0  0  0  0
  2  3  2  0  0  0  0
  2  4  1  0  0  0  0
  4  5  1  0  0  0  0
  5  6  2  0  0  0  0
  5 30  1  0  0  0  0
  6  7  1  0  0  0  0
  7  8  2  0  0  0  0
  8  9  1  0  0  0  0
  8 29  1  0  0  0  0
  9 10  1  0  0  0  0
 10 11  1  0  0  0  0
 10 27  1  0  0  0  0
 11 12  1  0  0  0  0
 12 13  1  0  0  0  0
 13 14  2  0  0  0  0
 13 15  1  0  0  0  0
 15 16  1  0  0  0  0
 16 17  1  0  0  0  0
 16 21  1  0  0  0  0
 17 18  1  0  0  0  0
 18 19  1  0  0  0  0
 18 20  2  0  0  0  0
 21 22  2  0  0  0  0
 21 26  1  0  0  0  0
 22 23  1  0  0  0  0
 23 24  2  0  0  0  0
 24 25  1  0  0  0  0
 25 26  2  0  0  0  0
 27 28  2  0  0  0  0
 27 29  1  0  0  0  0
 29 30  2  0  0  0  0
M  END
>  <DATABASE_ID>
DB18036

>  <DATABASE_NAME>
drugbank

>  <SMILES>
NC(=N)NC1=CC=C2CN(CCC(=O)NC(CC(O)=O)C3=CC=CN=C3)C(=O)C2=C1

>  <INCHI_IDENTIFIER>
InChI=1S/C20H22N6O4/c21-20(22)24-14-4-3-13-11-26(19(30)15(13)8-14)7-5-17(27)25-16(9-18(28)29)12-2-1-6-23-10-12/h1-4,6,8,10,16H,5,7,9,11H2,(H,25,27)(H,28,29)(H4,21,22,24)

>  <INCHI_KEY>
QYJPVUKVHBUFLH-UHFFFAOYSA-N

>  <FORMULA>
C20H22N6O4

>  <MOLECULAR_WEIGHT>
410.434

>  <EXACT_MASS>
410.170253212

>  <JCHEM_ACCEPTOR_COUNT>
8

>  <JCHEM_ATOM_COUNT>
52

>  <JCHEM_AVERAGE_NEUTRAL_MICROSPECIES_CHARGE>
3.7293407326678114

>  <JCHEM_AVERAGE_POLARIZABILITY>
42.11975580599365

>  <JCHEM_BIOAVAILABILITY>
1

>  <JCHEM_DONOR_COUNT>
5

>  <JCHEM_FORMAL_CHARGE>
0

>  <JCHEM_GHOSE_FILTER>
0

>  <JCHEM_IUPAC>
3-[3-(6-carbamimidamido-1-oxo-2,3-dihydro-1H-isoindol-2-yl)propanamido]-3-(pyridin-3-yl)propanoic acid

>  <JCHEM_LOGP>
-2.238670134032498

>  <JCHEM_MDDR_LIKE_RULE>
1

>  <JCHEM_NEUTRAL_CHARGE>
0

>  <JCHEM_NUMBER_OF_RINGS>
3

>  <JCHEM_PHYSIOLOGICAL_CHARGE>
0

>  <JCHEM_PKA>
13.746444198119468

>  <JCHEM_PKA_STRONGEST_ACIDIC>
3.485968988521375

>  <JCHEM_PKA_STRONGEST_BASIC>
9.632349066427471

>  <JCHEM_POLAR_SURFACE_AREA>
161.5

>  <JCHEM_REFRACTIVITY>
120.03099999999998

>  <JCHEM_ROTATABLE_BOND_COUNT>
8

>  <JCHEM_RULE_OF_FIVE>
1

>  <JCHEM_TRADITIONAL_IUPAC>
3-[3-(6-carbamimidamido-1-oxo-3H-isoindol-2-yl)propanamido]-3-(pyridin-3-yl)propanoic acid

>  <JCHEM_VEBER_RULE>
0

>  <DRUGBANK_ID>
DB18036

>  <DRUG_GROUPS>
investigational

>  <GENERIC_NAME>
3-(3-(6-Guanidino-1-oxoisoindolin-2yl)propanamido)-3-(pyridine-3yl)propanoic acid

>  <SALTS>
3-(3-(6-Guanidino-1-oxoisoindolin-2yl)propanamido)-3-(pyridine-3yl)propanoic acid dihydrochloride

$$$$

 OpenBabel05042401512D

 30 33  0  0  0  0  0  0  0  0999 V2000
    0.8236   -7.9546    0.0000 F   0  0  0  0  0  0  0  0  0  0  0  0
    0.3387   -7.2871    0.0000 C   0  0  0  0  0  0  0  0  0  0  0  0
   -0.4818   -7.3734    0.0000 C   0  0  0  0  0  0  0  0  0  0  0  0
   -0.9667   -6.7059    0.0000 C   0  0  0  0  0  0  0  0  0  0  0  0
   -0.6312   -5.9522    0.0000 C   0  0  0  0  0  0  0  0  0  0  0  0
    0.1893   -5.8660    0.0000 N   0  0  0  0  0  0  0  0  0  0  0  0
    0.6742   -6.5335    0.0000 C   0  0  0  0  0  0  0  0  0  0  0  0
    1.4947   -6.4472    0.0000 C   0  0  0  0  0  0  0  0  0  0  0  0
    1.8303   -5.6935    0.0000 N   0  0  0  0  0  0  0  0  0  0  0  0
    2.6507   -5.6073    0.0000 C   0  0  0  0  0  0  0  0  0  0  0  0
    3.1357   -6.2747    0.0000 O   0  0  0  0  0  0  0  0  0  0  0  0
    2.9863   -4.8536    0.0000 C   0  0  0  0  0  0  0  0  0  0  0  0
    2.5738   -4.1392    0.0000 C   0  0  0  0  0  0  0  0  0  0  0  0
    3.1258   -3.5261    0.0000 O   0  0  0  0  0  0  0  0  0  0  0  0
    3.8795   -3.8616    0.0000 C   0  0  0  0  0  0  0  0  0  0  0  0
    4.5940   -3.4491    0.0000 C   0  0  0  0  0  0  0  0  0  0  0  0
    5.3084   -3.8616    0.0000 C   0  0  0  0  0  0  0  0  0  0  0  0
    6.0229   -3.4491    0.0000 N   0  0  0  0  0  0  0  0  0  0  0  0
    6.7374   -3.8616    0.0000 C   0  0  0  0  0  0  0  0  0  0  0  0
    7.4519   -3.4491    0.0000 C   0  0  0  0  0  0  0  0  0  0  0  0
    8.1663   -3.8616    0.0000 C   0  0  0  0  0  0  0  0  0  0  0  0
    8.9200   -3.5261    0.0000 N   0  0  0  0  0  0  0  0  0  0  0  0
    9.4720   -4.1392    0.0000 C   0  0  0  0  0  0  0  0  0  0  0  0
   10.2970   -4.1392    0.0000 C   0  0  0  0  0  0  0  0  0  0  0  0
   10.7095   -4.8536    0.0000 C   0  0  0  0  0  0  0  0  0  0  0  0
   10.2970   -5.5681    0.0000 C   0  0  0  0  0  0  0  0  0  0  0  0
    9.4720   -5.5681    0.0000 C   0  0  0  0  0  0  0  0  0  0  0  0
    9.0595   -4.8536    0.0000 C   0  0  0  0  0  0  0  0  0  0  0  0
    8.2526   -4.6821    0.0000 N   0  0  0  0  0  0  0  0  0  0  0  0
    3.7933   -4.6821    0.0000 N   0  0  0  0  0  0  0  0  0  0  0  0
  1  2  1  0  0  0  0
  2  3  2  0  0  0  0
  2  7  1  0  0  0  0
  3  4  1  0  0  0  0
  4  5  2  0  0  0  0
  5  6  1  0  0  0  0
  6  7  2  0  0  0  0
  7  8  1  0  0  0  0
  8  9  1  0  0  0  0
  9 10  1  0  0  0  0
 10 11  2  0  0  0  0
 10 12  1  0  0  0  0
 12 13  2  0  0  0  0
 12 30  1  0  0  0  0
 13 14  1  0  0  0  0
 14 15  1  0  0  0  0
 15 16  1  0  0  0  0
 15 30  2  0  0  0  0
 16 17  1  0  0  0  0
 17 18  1  0  0  0  0
 18 19  1  0  0  0  0
 19 20  1  0  0  0  0
 20 21  1  0  0  0  0
 21 22  2  0  0  0  0
 21 29  1  0  0  0  0
 22 23  1  0  0  0  0
 23 24  2  0  0  0  0
 23 28  1  0  0  0  0
 24 25  1  0  0  0  0
 25 26  2  0  0  0  0
 26 27  1  0  0  0  0
 27 28  2  0  0  0  0
 28 29  1  0  0  0  0
M  END
>  <DATABASE_ID>
DB17692

>  <DATABASE_NAME>
drugbank

>  <SMILES>
FC1=CC=CN=C1CNC(=O)C1=COC(CCNCCC2=NC3=CC=CC=C3N2)=N1

>  <INCHI_IDENTIFIER>
InChI=1S/C21H21FN6O2/c22-14-4-3-9-24-17(14)12-25-21(29)18-13-30-20(28-18)8-11-23-10-7-19-26-15-5-1-2-6-16(15)27-19/h1-6,9,13,23H,7-8,10-12H2,(H,25,29)(H,26,27)

>  <INCHI_KEY>
KNYVRFXIVWUGBZ-UHFFFAOYSA-N

>  <FORMULA>
C21H21FN6O2

>  <MOLECULAR_WEIGHT>
408.437

>  <EXACT_MASS>
408.171002103

>  <JCHEM_ACCEPTOR_COUNT>
5

>  <JCHEM_ATOM_COUNT>
51

>  <JCHEM_AVERAGE_NEUTRAL_MICROSPECIES_CHARGE>
3.2030951307240945

>  <JCHEM_AVERAGE_POLARIZABILITY>
43.14267558594054

>  <JCHEM_BIOAVAILABILITY>
1

>  <JCHEM_DONOR_COUNT>
3

>  <JCHEM_FORMAL_CHARGE>
0

>  <JCHEM_GHOSE_FILTER>
1

>  <JCHEM_IUPAC>
2-(2-{[2-(1H-1,3-benzodiazol-2-yl)ethyl]amino}ethyl)-N-[(3-fluoropyridin-2-yl)methyl]-1,3-oxazole-4-carboxamide

>  <JCHEM_LOGP>
1.2957169099999999

>  <JCHEM_MDDR_LIKE_RULE>
1

>  <JCHEM_NEUTRAL_CHARGE>
1

>  <JCHEM_NUMBER_OF_RINGS>
4

>  <JCHEM_PHYSIOLOGICAL_CHARGE>
1

>  <JCHEM_POLAR_SURFACE_AREA>
108.73

>  <JCHEM_REFRACTIVITY>
107.34430000000002

>  <JCHEM_ROTATABLE_BOND_COUNT>
9

>  <JCHEM_RULE_OF_FIVE>
1

>  <JCHEM_TRADITIONAL_IUPAC>
2-(2-{[2-(1H-1,3-benzodiazol-2-yl)ethyl]amino}ethyl)-N-[(3-fluoropyridin-2-yl)methyl]-1,3-oxazole-4-carboxamide

>  <JCHEM_VEBER_RULE>
0

>  <DRUGBANK_ID>
DB17692

>  <DRUG_GROUPS>
investigational

>  <GENERIC_NAME>
Vamifeport

>  <SYNONYMS>
2-(2-((2-(1h-benzimidazol-2-yl)ethyl)amino)ethyl)-n-((3-fluoropyridin-2-yl)methyl)-1,3-oxazole-4-carboxamide; 4-oxazolecarboxamide, 2-(2-((2-(1h-benzimidazol-2-yl)ethyl)amino)ethyl)-n-((3-fluoro-2-pyridinyl)methyl)-

>  <SALTS>
Vamifeport hydrochloride

$$$$

 OpenBabel05042401512D

 37 40  0  0  1  0  0  0  0  0999 V2000
   -0.7145   -2.8875    0.0000 C   0  0  0  0  0  0  0  0  0  0  0  0
    0.0000   -2.4750    0.0000 N   0  0  0  0  0  0  0  0  0  0  0  0
    0.0000   -1.6500    0.0000 C   0  0  0  0  0  0  0  0  0  0  0  0
    0.7145   -1.2375    0.0000 C   0  0  1  0  0  0  0  0  0  0  0  0
    1.4289   -1.6500    0.0000 N   0  0  0  0  0  0  0  0  0  0  0  0
    1.4289   -2.4750    0.0000 C   0  0  0  0  0  0  0  0  0  0  0  0
    0.7145   -2.8875    0.0000 O   0  0  0  0  0  0  0  0  0  0  0  0
    2.1434   -2.8875    0.0000 C   0  0  0  0  0  0  0  0  0  0  0  0
    2.1434   -3.7125    0.0000 C   0  0  0  0  0  0  0  0  0  0  0  0
    2.8579   -4.1250    0.0000 C   0  0  0  0  0  0  0  0  0  0  0  0
    3.5724   -3.7125    0.0000 C   0  0  0  0  0  0  0  0  0  0  0  0
    3.5724   -2.8875    0.0000 C   0  0  0  0  0  0  0  0  0  0  0  0
    2.8579   -2.4750    0.0000 C   0  0  0  0  0  0  0  0  0  0  0  0
    2.8579   -1.6500    0.0000 F   0  0  0  0  0  0  0  0  0  0  0  0
    4.2868   -4.1250    0.0000 C   0  0  0  0  0  0  0  0  0  0  0  0
    5.0013   -3.7125    0.0000 N   0  0  0  0  0  0  0  0  0  0  0  0
    5.7158   -4.1250    0.0000 C   0  0  0  0  0  0  0  0  0  0  0  0
    5.7158   -4.9500    0.0000 C   0  0  0  0  0  0  0  0  0  0  0  0
    5.0013   -5.3625    0.0000 N   0  0  0  0  0  0  0  0  0  0  0  0
    4.2868   -4.9500    0.0000 C   0  0  0  0  0  0  0  0  0  0  0  0
    3.5724   -5.3625    0.0000 N   0  0  0  0  0  0  0  0  0  0  0  0
    6.4302   -3.7125    0.0000 C   0  0  1  0  0  0  0  0  0  0  0  0
    6.4302   -2.8875    0.0000 C   0  0  0  0  0  0  0  0  0  0  0  0
    7.1447   -2.4750    0.0000 C   0  0  0  0  0  0  0  0  0  0  0  0
    7.8592   -2.8875    0.0000 C   0  0  2  0  0  0  0  0  0  0  0  0
    8.5737   -2.4750    0.0000 O   0  0  0  0  0  0  0  0  0  0  0  0
    7.8592   -3.7125    0.0000 C   0  0  1  0  0  0  0  0  0  0  0  0
    8.5737   -4.1250    0.0000 F   0  0  0  0  0  0  0  0  0  0  0  0
    7.1447   -4.1250    0.0000 C   0  0  0  0  0  0  0  0  0  0  0  0
    0.7145   -0.4125    0.0000 C   0  0  0  0  0  0  0  0  0  0  0  0
    0.0000    0.0000    0.0000 C   0  0  0  0  0  0  0  0  0  0  0  0
    0.0000    0.8250    0.0000 C   0  0  0  0  0  0  0  0  0  0  0  0
   -0.7145    1.2375    0.0000 F   0  0  0  0  0  0  0  0  0  0  0  0
    0.7145    1.2375    0.0000 C   0  0  0  0  0  0  0  0  0  0  0  0
    1.4289    0.8250    0.0000 C   0  0  0  0  0  0  0  0  0  0  0  0
    2.1434    1.2375    0.0000 Br  0  0  0  0  0  0  0  0  0  0  0  0
    1.4289   -0.0000    0.0000 C   0  0  0  0  0  0  0  0  0  0  0  0
  1  2  1  0  0  0  0
  2  3  1  0  0  0  0
  4  3  1  6  0  0  0
  4  5  1  0  0  0  0
  4 30  1  0  0  0  0
  5  6  1  0  0  0  0
  6  7  2  0  0  0  0
  6  8  1  0  0  0  0
  8  9  2  0  0  0  0
  8 13  1  0  0  0  0
  9 10  1  0  0  0  0
 10 11  2  0  0  0  0
 11 12  1  0  0  0  0
 11 15  1  0  0  0  0
 12 13  2  0  0  0  0
 13 14  1  0  0  0  0
 15 16  2  0  0  0  0
 15 20  1  0  0  0  0
 16 17  1  0  0  0  0
 17 18  2  0  0  0  0
 18 19  1  0  0  0  0
 19 20  2  0  0  0  0
 20 21  1  0  0  0  0
 22 17  1  1  0  0  0
 22 23  1  0  0  0  0
 22 29  1  0  0  0  0
 23 24  1  0  0  0  0
 25 24  1  0  0  0  0
 25 26  1  6  0  0  0
 25 27  1  0  0  0  0
 27 28  1  1  0  0  0
 27 29  1  0  0  0  0
 30 31  2  0  0  0  0
 30 37  1  0  0  0  0
 31 32  1  0  0  0  0
 32 33  1  0  0  0  0
 32 34  2  0  0  0  0
 34 35  1  0  0  0  0
 35 36  1  0  0  0  0
 35 37  2  0  0  0  0
M  END
>  <DATABASE_ID>
DB17560

>  <DATABASE_NAME>
drugbank

>  <SMILES>
CNC[C@@H](NC(=O)C1=CC=C(C=C1F)C1=NC(=CN=C1N)[C@H]1CC[C@H](O)[C@@H](F)C1)C1=CC(F)=CC(Br)=C1

>  <INCHI_IDENTIFIER>
InChI=1S/C26H27BrF3N5O2/c1-32-11-21(15-6-16(27)10-17(28)7-15)35-26(37)18-4-2-14(9-19(18)29)24-25(31)33-12-22(34-24)13-3-5-23(36)20(30)8-13/h2,4,6-7,9-10,12-13,20-21,23,32,36H,3,5,8,11H2,1H3,(H2,31,33)(H,35,37)/t13-,20-,21+,23-/m0/s1

>  <INCHI_KEY>
YFCIFWOJYYFDQP-PTWZRHHISA-N

>  <FORMULA>
C26H27BrF3N5O2

>  <MOLECULAR_WEIGHT>
578.434

>  <EXACT_MASS>
577.130023

>  <JCHEM_ACCEPTOR_COUNT>
6

>  <JCHEM_ATOM_COUNT>
64

>  <JCHEM_AVERAGE_NEUTRAL_MICROSPECIES_CHARGE>
0.991695083417556

>  <JCHEM_AVERAGE_POLARIZABILITY>
52.20591224171339

>  <JCHEM_BIOAVAILABILITY>
1

>  <JCHEM_DONOR_COUNT>
4

>  <JCHEM_FORMAL_CHARGE>
0

>  <JCHEM_GHOSE_FILTER>
0

>  <JCHEM_IUPAC>
4-{3-amino-6-[(1S,3S,4S)-3-fluoro-4-hydroxycyclohexyl]pyrazin-2-yl}-N-[(1S)-1-(3-bromo-5-fluorophenyl)-2-(methylamino)ethyl]-2-fluorobenzamide

>  <ALOGPS_LOGP>
3.32

>  <JCHEM_LOGP>
3.559159882666666

>  <ALOGPS_LOGS>
-4.92

>  <JCHEM_MDDR_LIKE_RULE>
1

>  <JCHEM_NEUTRAL_CHARGE>
1

>  <JCHEM_NUMBER_OF_RINGS>
4

>  <JCHEM_PHYSIOLOGICAL_CHARGE>
1

>  <JCHEM_PKA>
13.908615451756043

>  <JCHEM_PKA_STRONGEST_ACIDIC>
12.017024588030559

>  <JCHEM_PKA_STRONGEST_BASIC>
9.073527768038682

>  <JCHEM_POLAR_SURFACE_AREA>
113.16

>  <JCHEM_REFRACTIVITY>
137.6928

>  <JCHEM_ROTATABLE_BOND_COUNT>
7

>  <JCHEM_RULE_OF_FIVE>
0

>  <ALOGPS_SOLUBILITY>
7.02e-03 g/l

>  <JCHEM_TRADITIONAL_IUPAC>
6-{[6-(4-aminobenzenesulfonamido)pyridin-3-yl]oxy}-3,4,5-trihydroxyoxane-2-carboxylic acid

>  <JCHEM_VEBER_RULE>
0

>  <DRUGBANK_ID>
DB17560

>  <DRUG_GROUPS>
investigational

>  <GENERIC_NAME>
Rineterkib

>  <SYNONYMS>
4-(3-amino-6-((1s,3s,4s)-3-fluoro-4-hydroxycyclohexyl)-2-pyrazinyl)-n-((1s)-1-(3-bromo-5-fluorophenyl)-2-(methylamino)ethyl)-2-fluorobenzamide; Benzamide, 4-(3-amino-6-((1s,3s,4s)-3-fluoro-4-hydroxycyclohexyl)-2-pyrazinyl)-n-((1s)-1-(3-bromo-5-fluorophenyl)-2-(methylamino)ethyl)-2-fluoro-; Rineterkib

$$$$

 OpenBabel05042401512D

 44 50  0  0  1  0  0  0  0  0999 V2000
    5.6595   -3.3481    0.0000 C   0  0  0  0  0  0  0  0  0  0  0  0
    5.8310   -4.1551    0.0000 C   0  0  0  0  0  0  0  0  0  0  0  0
    6.6156   -4.4100    0.0000 N   0  0  0  0  0  0  0  0  0  0  0  0
    7.2831   -3.9251    0.0000 C   0  0  2  0  0  0  0  0  0  0  0  0
    7.9505   -4.4100    0.0000 C   0  0  2  0  0  0  0  0  0  0  0  0
    8.7351   -4.1551    0.0000 C   0  0  0  0  0  0  0  0  0  0  0  0
    9.3482   -4.7071    0.0000 C   0  0  0  0  0  0  0  0  0  0  0  0
   10.1329   -4.4522    0.0000 C   0  0  0  0  0  0  0  0  0  0  0  0
   10.3044   -3.6452    0.0000 C   0  0  0  0  0  0  0  0  0  0  0  0
    9.6913   -3.0932    0.0000 C   0  0  0  0  0  0  0  0  0  0  0  0
    9.8628   -2.2862    0.0000 Cl  0  0  0  0  0  0  0  0  0  0  0  0
    8.9067   -3.3481    0.0000 C   0  0  0  0  0  0  0  0  0  0  0  0
    8.2936   -2.7961    0.0000 F   0  0  0  0  0  0  0  0  0  0  0  0
    7.6956   -5.1947    0.0000 C   0  0  1  0  0  0  0  0  0  0  0  0
    8.5206   -5.1947    0.0000 C   0  0  0  0  0  0  0  0  0  0  0  0
    9.3456   -5.1947    0.0000 O   0  0  0  0  0  0  0  0  0  0  0  0
    8.7755   -5.9793    0.0000 N   0  0  0  0  0  0  0  0  0  0  0  0
    8.1081   -6.4642    0.0000 C   0  0  0  0  0  0  0  0  0  0  0  0
    8.0218   -7.2847    0.0000 C   0  0  0  0  0  0  0  0  0  0  0  0
    7.2682   -7.6202    0.0000 C   0  0  0  0  0  0  0  0  0  0  0  0
    7.1819   -8.4407    0.0000 Cl  0  0  0  0  0  0  0  0  0  0  0  0
    6.6007   -7.1353    0.0000 C   0  0  0  0  0  0  0  0  0  0  0  0
    6.6870   -6.3148    0.0000 C   0  0  0  0  0  0  0  0  0  0  0  0
    7.5496   -6.0211    0.0000 C   0  0  0  0  0  0  0  0  0  0  0  0
    6.8706   -5.1947    0.0000 C   0  0  0  0  0  0  0  0  0  0  0  0
    7.2061   -5.9483    0.0000 C   0  0  0  0  0  0  0  0  0  0  0  0
    6.7212   -6.6158    0.0000 C   0  0  0  0  0  0  0  0  0  0  0  0
    5.9007   -6.5295    0.0000 C   0  0  0  0  0  0  0  0  0  0  0  0
    5.5652   -5.7759    0.0000 C   0  0  0  0  0  0  0  0  0  0  0  0
    6.0501   -5.1084    0.0000 C   0  0  0  0  0  0  0  0  0  0  0  0
    7.2831   -3.1001    0.0000 C   0  0  0  0  0  0  0  0  0  0  0  0
    7.9976   -2.6876    0.0000 O   0  0  0  0  0  0  0  0  0  0  0  0
    6.5686   -2.6876    0.0000 N   0  0  0  0  0  0  0  0  0  0  0  0
    6.5686   -1.8626    0.0000 C   0  0  3  0  0  0  0  0  0  0  0  0
    5.8541   -1.4501    0.0000 C   0  0  0  0  0  0  0  0  0  0  0  0
    5.8541   -0.6251    0.0000 C   0  0  0  0  0  0  0  0  0  0  0  0
    6.5686   -0.2126    0.0000 C   0  0  3  0  0  0  0  0  0  0  0  0
    7.2831   -0.6251    0.0000 C   0  0  0  0  0  0  0  0  0  0  0  0
    7.2831   -1.4501    0.0000 C   0  0  0  0  0  0  0  0  0  0  0  0
    6.7061   -0.7626    0.0000 C   0  0  0  0  0  0  0  0  0  0  0  0
    6.7061   -1.3126    0.0000 C   0  0  0  0  0  0  0  0  0  0  0  0
    6.5686    0.6124    0.0000 C   0  0  0  0  0  0  0  0  0  0  0  0
    5.8541    1.0249    0.0000 O   0  0  0  0  0  0  0  0  0  0  0  0
    7.2831    1.0249    0.0000 O   0  0  0  0  0  0  0  0  0  0  0  0
  1  2  1  0  0  0  0
  2  3  1  0  0  0  0
  3 25  1  0  0  0  0
  4  3  1  0  0  0  0
  4 31  1  1  0  0  0
  5  4  1  0  0  0  0
  5  6  1  6  0  0  0
  5 14  1  0  0  0  0
  6  7  2  0  0  0  0
  6 12  1  0  0  0  0
  7  8  1  0  0  0  0
  8  9  2  0  0  0  0
  9 10  1  0  0  0  0
 10 11  1  0  0  0  0
 10 12  2  0  0  0  0
 12 13  1  0  0  0  0
 14 15  1  6  0  0  0
 14 24  1  0  0  0  0
 14 25  1  0  0  0  0
 15 16  2  0  0  0  0
 15 17  1  0  0  0  0
 17 18  1  0  0  0  0
 18 19  2  0  0  0  0
 18 24  1  0  0  0  0
 19 20  1  0  0  0  0
 20 21  1  0  0  0  0
 20 22  2  0  0  0  0
 22 23  1  0  0  0  0
 23 24  2  0  0  0  0
 25 26  1  0  0  0  0
 25 30  1  0  0  0  0
 26 27  1  0  0  0  0
 27 28  1  0  0  0  0
 28 29  1  0  0  0  0
 29 30  1  0  0  0  0
 31 32  2  0  0  0  0
 31 33  1  0  0  0  0
 33 34  1  0  0  0  0
 34 35  1  0  0  0  0
 34 39  1  0  0  0  0
 34 41  1  0  0  0  0
 35 36  1  0  0  0  0
 36 37  1  0  0  0  0
 37 38  1  0  0  0  0
 37 40  1  0  0  0  0
 37 42  1  0  0  0  0
 38 39  1  0  0  0  0
 40 41  1  0  0  0  0
 42 43  1  0  0  0  0
 42 44  2  0  0  0  0
M  END
>  <DATABASE_ID>
DB17549

>  <DATABASE_NAME>
drugbank

>  <SMILES>
CCN1[C@H]([C@H](C2=CC=CC(Cl)=C2F)[C@]2(C(=O)NC3=CC(Cl)=CC=C23)C11CCCCC1)C(=O)NC12CCC(CC1)(CC2)C(O)=O

>  <INCHI_IDENTIFIER>
InChI=1S/C34H38Cl2FN3O4/c1-2-40-27(28(41)39-32-16-13-31(14-17-32,15-18-32)30(43)44)25(21-7-6-8-23(36)26(21)37)34(33(40)11-4-3-5-12-33)22-10-9-20(35)19-24(22)38-29(34)42/h6-10,19,25,27H,2-5,11-18H2,1H3,(H,38,42)(H,39,41)(H,43,44)/t25-,27+,31?,32?,34+/m0/s1

>  <INCHI_KEY>
YJCZPJQGFSSFOL-MNZPCBJKSA-N

>  <FORMULA>
C34H38Cl2FN3O4

>  <MOLECULAR_WEIGHT>
642.59

>  <EXACT_MASS>
641.2223403

>  <JCHEM_ACCEPTOR_COUNT>
5

>  <JCHEM_ATOM_COUNT>
82

>  <JCHEM_AVERAGE_NEUTRAL_MICROSPECIES_CHARGE>
-0.03600198677354972

>  <JCHEM_AVERAGE_POLARIZABILITY>
66.0124193051333

>  <JCHEM_BIOAVAILABILITY>
1

>  <JCHEM_DONOR_COUNT>
3

>  <JCHEM_FORMAL_CHARGE>
0

>  <JCHEM_GHOSE_FILTER>
0

>  <JCHEM_IUPAC>
4-{[(3'R,4'S,5'R)-6''-chloro-4'-(3-chloro-2-fluorophenyl)-1'-ethyl-2''-oxo-1'',2''-dihydrodispiro[cyclohexane-1,2'-pyrrolidine-3',3''-indol]-5'-yl]amido}bicyclo[2.2.2]octane-1-carboxylic acid

>  <ALOGPS_LOGP>
4.63

>  <JCHEM_LOGP>
3.904743721595219

>  <ALOGPS_LOGS>
-5.70

>  <JCHEM_MDDR_LIKE_RULE>
0

>  <JCHEM_NEUTRAL_CHARGE>
0

>  <JCHEM_NUMBER_OF_RINGS>
7

>  <JCHEM_PHYSIOLOGICAL_CHARGE>
0

>  <JCHEM_PKA>
12.870174436736207

>  <JCHEM_PKA_STRONGEST_ACIDIC>
3.6873740054156636

>  <JCHEM_PKA_STRONGEST_BASIC>
8.415745451217095

>  <JCHEM_POLAR_SURFACE_AREA>
98.74000000000001

>  <JCHEM_REFRACTIVITY>
167.5382

>  <JCHEM_ROTATABLE_BOND_COUNT>
5

>  <JCHEM_RULE_OF_FIVE>
0

>  <ALOGPS_SOLUBILITY>
1.28e-03 g/l

>  <JCHEM_TRADITIONAL_IUPAC>
6-{[6-(4-aminobenzenesulfonamido)pyridin-3-yl]oxy}-3,4,5-trihydroxyoxane-2-carboxylic acid

>  <JCHEM_VEBER_RULE>
0

>  <DRUGBANK_ID>
DB17549

>  <DRUG_GROUPS>
investigational

>  <GENERIC_NAME>
Alrizomadlin

>  <SYNONYMS>
(3'r,4's,5'r)-4-((6-chloro-2-oxo-1,2-dihydro-spiro(indole-3,3'-pyrrolidin)e-4'-(3-chloro-2-fluoro -phenyl)-1'-ethyl-spiro(cyclohexane-1,2'-pyrrolidine)-5'-carbonyl)-amino)-bicyclo(2.2.2)octane-1-carboxylic acid; 4-((3'R,4'S,5'R)-6''-chloro-4'-(3-chloro-2-fluorophenyl)-1'-ethyl-2''-oxodispiro[cyclohexane-1,2'-pyrrolidine-3',3''-indoline]-5'-carboxamido)bicyclo [2.2.2]octane-1-carboxylic acid; Bicyclo(2.2.2)octane-1-carboxylic acid, 4-((((3'r,4's,5'r)-6''-chloro-4'-(3-chloro-2-fluorophenyl)-1'-ethyl-1'',2''-dihydro-2''-oxodispiro(cyclohexane-1,2'-pyrrolidine-3',3''-(3h)indol)-5'-yl)carbonyl)amino)-

$$$$

 OpenBabel05042401512D

 32 36  0  0  0  0  0  0  0  0999 V2000
   -3.5551   -1.8413    0.0000 C   0  0  0  0  0  0  0  0  0  0  0  0
   -2.7346   -1.9275    0.0000 N   0  0  0  0  0  0  0  0  0  0  0  0
   -2.1826   -1.3144    0.0000 C   0  0  0  0  0  0  0  0  0  0  0  0
   -1.4289   -1.6500    0.0000 C   0  0  0  0  0  0  0  0  0  0  0  0
   -1.5152   -2.4705    0.0000 C   0  0  0  0  0  0  0  0  0  0  0  0
   -2.3221   -2.6420    0.0000 N   0  0  0  0  0  0  0  0  0  0  0  0
   -0.7145   -1.2375    0.0000 C   0  0  0  0  0  0  0  0  0  0  0  0
    0.0000   -1.6500    0.0000 C   0  0  0  0  0  0  0  0  0  0  0  0
    0.7145   -1.2375    0.0000 C   0  0  0  0  0  0  0  0  0  0  0  0
    0.7145   -0.4125    0.0000 C   0  0  0  0  0  0  0  0  0  0  0  0
    0.0000   -0.0000    0.0000 C   0  0  0  0  0  0  0  0  0  0  0  0
   -0.7145   -0.4125    0.0000 C   0  0  0  0  0  0  0  0  0  0  0  0
    1.4289   -0.0000    0.0000 C   0  0  0  0  0  0  0  0  0  0  0  0
    2.1434   -0.4125    0.0000 N   0  0  0  0  0  0  0  0  0  0  0  0
    2.1434   -1.2375    0.0000 C   0  0  0  0  0  0  0  0  0  0  0  0
    2.8579   -1.6500    0.0000 N   0  0  0  0  0  0  0  0  0  0  0  0
    2.8579   -2.4750    0.0000 C   0  0  0  0  0  0  0  0  0  0  0  0
    2.1434   -2.8875    0.0000 O   0  0  0  0  0  0  0  0  0  0  0  0
    3.5724   -2.8875    0.0000 C   0  0  0  0  0  0  0  0  0  0  0  0
    4.2868   -2.4750    0.0000 C   0  0  0  0  0  0  0  0  0  0  0  0
    5.0013   -2.8875    0.0000 C   0  0  0  0  0  0  0  0  0  0  0  0
    5.0013   -3.7125    0.0000 N   0  0  0  0  0  0  0  0  0  0  0  0
    4.2868   -4.1250    0.0000 C   0  0  0  0  0  0  0  0  0  0  0  0
    3.5724   -3.7125    0.0000 C   0  0  0  0  0  0  0  0  0  0  0  0
    4.2868   -4.9500    0.0000 N   0  0  0  0  0  0  0  0  0  0  0  0
    5.0013   -5.3625    0.0000 C   0  0  0  0  0  0  0  0  0  0  0  0
    5.0013   -6.1875    0.0000 C   0  0  0  0  0  0  0  0  0  0  0  0
    4.2868   -6.6000    0.0000 N   0  0  0  0  0  0  0  0  0  0  0  0
    4.2868   -7.4250    0.0000 C   0  0  0  0  0  0  0  0  0  0  0  0
    3.5724   -6.1875    0.0000 C   0  0  0  0  0  0  0  0  0  0  0  0
    3.5724   -5.3625    0.0000 C   0  0  0  0  0  0  0  0  0  0  0  0
    1.4289   -1.6500    0.0000 C   0  0  0  0  0  0  0  0  0  0  0  0
  1  2  1  0  0  0  0
  2  3  1  0  0  0  0
  2  6  1  0  0  0  0
  3  4  2  0  0  0  0
  4  5  1  0  0  0  0
  4  7  1  0  0  0  0
  5  6  2  0  0  0  0
  7  8  2  0  0  0  0
  7 12  1  0  0  0  0
  8  9  1  0  0  0  0
  9 10  2  0  0  0  0
  9 32  1  0  0  0  0
 10 11  1  0  0  0  0
 10 13  1  0  0  0  0
 11 12  2  0  0  0  0
 13 14  2  0  0  0  0
 14 15  1  0  0  0  0
 15 16  1  0  0  0  0
 15 32  2  0  0  0  0
 16 17  1  0  0  0  0
 17 18  2  0  0  0  0
 17 19  1  0  0  0  0
 19 20  2  0  0  0  0
 19 24  1  0  0  0  0
 20 21  1  0  0  0  0
 21 22  2  0  0  0  0
 22 23  1  0  0  0  0
 23 24  2  0  0  0  0
 23 25  1  0  0  0  0
 25 26  1  0  0  0  0
 25 31  1  0  0  0  0
 26 27  1  0  0  0  0
 27 28  1  0  0  0  0
 28 29  1  0  0  0  0
 28 30  1  0  0  0  0
 30 31  1  0  0  0  0
M  END
>  <DATABASE_ID>
DB17269

>  <DATABASE_NAME>
drugbank

>  <SMILES>
CN1C=C(C=N1)C1=CC2=C(C=C1)C=NC(NC(=O)C1=CC=NC(=C1)N1CCN(C)CC1)=C2

>  <INCHI_IDENTIFIER>
InChI=1S/C24H25N7O/c1-29-7-9-31(10-8-29)23-13-18(5-6-25-23)24(32)28-22-12-20-11-17(3-4-19(20)14-26-22)21-15-27-30(2)16-21/h3-6,11-16H,7-10H2,1-2H3,(H,26,28,32)

>  <INCHI_KEY>
BQWWOBKMDWACGC-UHFFFAOYSA-N

>  <FORMULA>
C24H25N7O

>  <MOLECULAR_WEIGHT>
427.512

>  <EXACT_MASS>
427.212058453

>  <JCHEM_ACCEPTOR_COUNT>
6

>  <JCHEM_ATOM_COUNT>
57

>  <JCHEM_AVERAGE_NEUTRAL_MICROSPECIES_CHARGE>
0.7105848001467584

>  <JCHEM_AVERAGE_POLARIZABILITY>
48.59652348248233

>  <JCHEM_BIOAVAILABILITY>
1

>  <JCHEM_DONOR_COUNT>
1

>  <JCHEM_FORMAL_CHARGE>
0

>  <JCHEM_GHOSE_FILTER>
0

>  <JCHEM_IUPAC>
N-[6-(1-methyl-1H-pyrazol-4-yl)isoquinolin-3-yl]-2-(4-methylpiperazin-1-yl)pyridine-4-carboxamide

>  <ALOGPS_LOGP>
2.81

>  <JCHEM_LOGP>
2.838426441666667

>  <ALOGPS_LOGS>
-3.86

>  <JCHEM_MDDR_LIKE_RULE>
0

>  <JCHEM_NEUTRAL_CHARGE>
1

>  <JCHEM_NUMBER_OF_RINGS>
5

>  <JCHEM_PHYSIOLOGICAL_CHARGE>
1

>  <JCHEM_PKA_STRONGEST_ACIDIC>
14.391299257296506

>  <JCHEM_PKA_STRONGEST_BASIC>
7.389886855341189

>  <JCHEM_POLAR_SURFACE_AREA>
79.17999999999999

>  <JCHEM_REFRACTIVITY>
138.87319999999997

>  <JCHEM_ROTATABLE_BOND_COUNT>
4

>  <JCHEM_RULE_OF_FIVE>
1

>  <ALOGPS_SOLUBILITY>
5.91e-02 g/l

>  <JCHEM_TRADITIONAL_IUPAC>
2-(4-methylpiperazin-1-yl)-N-[6-(1-methylpyrazol-4-yl)isoquinolin-3-yl]pyridine-4-carboxamide

>  <JCHEM_VEBER_RULE>
0

>  <DRUGBANK_ID>
DB17269

>  <DRUG_GROUPS>
investigational

>  <GENERIC_NAME>
Cirtuvivint

>  <SYNONYMS>
4-pyridinecarboxamide, 2-(4-methyl-1-piperazinyl)-n-(6-(1-methyl-1h-pyrazol-4-yl)-3-isoquinolinyl)-; CDC-like kinase inhibitor of the Wnt Pathway

$$$$

 OpenBabel05042401512D

 33 34  0  0  1  0  0  0  0  0999 V2000
   -2.8579    7.4250    0.0000 C   0  0  0  0  0  0  0  0  0  0  0  0
   -2.1434    7.0125    0.0000 N   0  0  0  0  0  0  0  0  0  0  0  0
   -2.1434    6.1875    0.0000 C   0  0  0  0  0  0  0  0  0  0  0  0
   -1.4289    5.7750    0.0000 C   0  0  3  0  0  0  0  0  0  0  0  0
   -0.7145    6.1875    0.0000 C   0  0  0  0  0  0  0  0  0  0  0  0
    0.0000    5.7750    0.0000 C   0  0  0  0  0  0  0  0  0  0  0  0
   -0.0000    4.9500    0.0000 C   0  0  0  0  0  0  0  0  0  0  0  0
   -0.7145    4.5375    0.0000 C   0  0  0  0  0  0  0  0  0  0  0  0
   -1.4289    4.9500    0.0000 N   0  0  0  0  0  0  0  0  0  0  0  0
   -2.1434    4.5375    0.0000 C   0  0  0  0  0  0  0  0  0  0  0  0
   -2.8579    4.9500    0.0000 O   0  0  0  0  0  0  0  0  0  0  0  0
   -2.1434    3.7125    0.0000 O   0  0  0  0  0  0  0  0  0  0  0  0
   -1.4289    3.3000    0.0000 C   0  0  0  0  0  0  0  0  0  0  0  0
   -0.7145    3.7125    0.0000 C   0  0  0  0  0  0  0  0  0  0  0  0
    0.0000    3.3000    0.0000 C   0  0  0  0  0  0  0  0  0  0  0  0
    0.0000    2.4750    0.0000 C   0  0  0  0  0  0  0  0  0  0  0  0
    0.7145    2.0625    0.0000 C   0  0  0  0  0  0  0  0  0  0  0  0
    1.4289    2.4750    0.0000 N   0  0  0  0  0  0  0  0  0  0  0  0
    2.1434    2.0625    0.0000 C   0  0  0  0  0  0  0  0  0  0  0  0
    2.1434    1.2375    0.0000 O   0  0  0  0  0  0  0  0  0  0  0  0
    2.8579    2.4750    0.0000 C   0  0  0  0  0  0  0  0  0  0  0  0
    3.5724    2.0625    0.0000 C   0  0  0  0  0  0  0  0  0  0  0  0
    4.2868    2.4750    0.0000 C   0  0  0  0  0  0  0  0  0  0  0  0
    5.0013    2.0625    0.0000 C   0  0  0  0  0  0  0  0  0  0  0  0
    5.0013    1.2375    0.0000 C   0  0  0  0  0  0  0  0  0  0  0  0
    4.2868    0.8250    0.0000 C   0  0  0  0  0  0  0  0  0  0  0  0
    4.2868    0.0000    0.0000 C   0  0  0  0  0  0  0  0  0  0  0  0
    3.5724   -0.4125    0.0000 C   0  0  0  0  0  0  0  0  0  0  0  0
    5.0013   -0.4125    0.0000 C   0  0  0  0  0  0  0  0  0  0  0  0
   -0.7145    2.0625    0.0000 C   0  0  0  0  0  0  0  0  0  0  0  0
   -1.4289    2.4750    0.0000 C   0  0  0  0  0  0  0  0  0  0  0  0
   -2.1434    2.0625    0.0000 O   0  0  0  0  0  0  0  0  0  0  0  0
   -2.8579    2.4750    0.0000 C   0  0  0  0  0  0  0  0  0  0  0  0
  1  2  1  0  0  0  0
  2  3  1  0  0  0  0
  3  4  1  0  0  0  0
  4  5  1  0  0  0  0
  4  9  1  0  0  0  0
  5  6  1  0  0  0  0
  6  7  1  0  0  0  0
  7  8  1  0  0  0  0
  8  9  1  0  0  0  0
  9 10  1  0  0  0  0
 10 11  2  0  0  0  0
 10 12  1  0  0  0  0
 12 13  1  0  0  0  0
 13 14  2  0  0  0  0
 13 31  1  0  0  0  0
 14 15  1  0  0  0  0
 15 16  2  0  0  0  0
 16 17  1  0  0  0  0
 16 30  1  0  0  0  0
 17 18  1  0  0  0  0
 18 19  1  0  0  0  0
 19 20  2  0  0  0  0
 19 21  1  0  0  0  0
 21 22  1  0  0  0  0
 22 23  1  0  0  0  0
 23 24  1  0  0  0  0
 24 25  1  0  0  0  0
 25 26  2  0  0  0  0
 26 27  1  0  0  0  0
 27 28  1  0  0  0  0
 27 29  1  0  0  0  0
 30 31  2  0  0  0  0
 31 32  1  0  0  0  0
 32 33  1  0  0  0  0
M  END
>  <DATABASE_ID>
DB17071

>  <DATABASE_NAME>
drugbank

>  <SMILES>
CNCC1CCCCN1C(=O)OC1=CC=C(CNC(=O)CCCC\C=C\C(C)C)C=C1OC

>  <INCHI_IDENTIFIER>
InChI=1S/C26H41N3O4/c1-20(2)11-7-5-6-8-13-25(30)28-18-21-14-15-23(24(17-21)32-4)33-26(31)29-16-10-9-12-22(29)19-27-3/h7,11,14-15,17,20,22,27H,5-6,8-10,12-13,16,18-19H2,1-4H3,(H,28,30)/b11-7+

>  <INCHI_KEY>
BXAQOVOOXOHMFY-YRNVUSSQSA-N

>  <FORMULA>
C26H41N3O4

>  <MOLECULAR_WEIGHT>
459.631

>  <EXACT_MASS>
459.309706812

>  <JCHEM_ACCEPTOR_COUNT>
4

>  <JCHEM_ATOM_COUNT>
74

>  <JCHEM_AVERAGE_NEUTRAL_MICROSPECIES_CHARGE>
0.9980535870552839

>  <JCHEM_AVERAGE_POLARIZABILITY>
53.49030199228475

>  <JCHEM_BIOAVAILABILITY>
1

>  <JCHEM_DONOR_COUNT>
2

>  <JCHEM_FORMAL_CHARGE>
0

>  <JCHEM_GHOSE_FILTER>
0

>  <JCHEM_IUPAC>
2-methoxy-4-{[(6E)-8-methylnon-6-enamido]methyl}phenyl 2-[(methylamino)methyl]piperidine-1-carboxylate

>  <ALOGPS_LOGP>
4.15

>  <JCHEM_LOGP>
4.320032224666666

>  <ALOGPS_LOGS>
-5.27

>  <JCHEM_MDDR_LIKE_RULE>
0

>  <JCHEM_NEUTRAL_CHARGE>
1

>  <JCHEM_NUMBER_OF_RINGS>
2

>  <JCHEM_PHYSIOLOGICAL_CHARGE>
1

>  <JCHEM_PKA_STRONGEST_ACIDIC>
15.302514397170349

>  <JCHEM_PKA_STRONGEST_BASIC>
9.70991803017065

>  <JCHEM_POLAR_SURFACE_AREA>
79.90000000000002

>  <JCHEM_REFRACTIVITY>
132.4756

>  <JCHEM_ROTATABLE_BOND_COUNT>
13

>  <JCHEM_RULE_OF_FIVE>
1

>  <ALOGPS_SOLUBILITY>
2.49e-03 g/l

>  <JCHEM_TRADITIONAL_IUPAC>
6-cyclopropaneamido-N-[hydroxy(2H2)methyl]-4-{[2-methoxy-3-(1-methyl-1,2,4-triazol-3-yl)phenyl]amino}pyridazine-3-carboxamide

>  <JCHEM_VEBER_RULE>
0

>  <DRUGBANK_ID>
DB17071

>  <DRUG_GROUPS>
investigational

>  <GENERIC_NAME>
Vocacapsaicin

>  <SYNONYMS>
1-piperidinecarboxylic acid, 2-((methylamino)methyl)-, 2-methoxy-4-((((6e)-8-methyl-1-oxo-6-nonen-1-yl)amino)methyl) phenyl ester; 2-methoxy-4-(((6e)-8-methylnon-6-enamido)methyl)phenyl (2rs)-2-((methylamino)methyl)piperidine-1-carboxylate

$$$$

 OpenBabel05042401512D

 22 24  0  0  0  0  0  0  0  0999 V2000
   -1.4289    0.0000    0.0000 Cl  0  0  0  0  0  0  0  0  0  0  0  0
   -0.7145   -0.4125    0.0000 C   0  0  0  0  0  0  0  0  0  0  0  0
   -0.7145   -1.2375    0.0000 C   0  0  0  0  0  0  0  0  0  0  0  0
   -1.4289   -1.6500    0.0000 N   0  0  0  0  0  0  0  0  0  0  0  0
   -1.4289   -2.4750    0.0000 C   0  0  0  0  0  0  0  0  0  0  0  0
   -2.1434   -2.8875    0.0000 C   0  0  0  0  0  0  0  0  0  0  0  0
   -2.1434   -3.7125    0.0000 N   0  0  0  0  0  0  0  0  0  0  0  0
   -1.4289   -4.1250    0.0000 C   0  0  0  0  0  0  0  0  0  0  0  0
   -1.4289   -4.9500    0.0000 C   0  0  0  0  0  0  0  0  0  0  0  0
   -2.1434   -5.3625    0.0000 O   0  0  0  0  0  0  0  0  0  0  0  0
   -2.8579   -4.9500    0.0000 C   0  0  0  0  0  0  0  0  0  0  0  0
   -2.8579   -4.1250    0.0000 C   0  0  0  0  0  0  0  0  0  0  0  0
    0.0000   -1.6500    0.0000 C   0  0  0  0  0  0  0  0  0  0  0  0
    0.0000   -2.4750    0.0000 O   0  0  0  0  0  0  0  0  0  0  0  0
    0.7145   -1.2375    0.0000 C   0  0  0  0  0  0  0  0  0  0  0  0
    0.7145   -0.4125    0.0000 C   0  0  0  0  0  0  0  0  0  0  0  0
    1.4289   -0.0000    0.0000 C   0  0  0  0  0  0  0  0  0  0  0  0
    2.1434   -0.4125    0.0000 C   0  0  0  0  0  0  0  0  0  0  0  0
    2.1434   -1.2375    0.0000 C   0  0  0  0  0  0  0  0  0  0  0  0
    1.4289   -1.6500    0.0000 N   0  0  0  0  0  0  0  0  0  0  0  0
    0.0000   -0.0000    0.0000 C   0  0  0  0  0  0  0  0  0  0  0  0
    0.0000    0.8250    0.0000 O   0  0  0  0  0  0  0  0  0  0  0  0
  1  2  1  0  0  0  0
  2  3  2  0  0  0  0
  2 21  1  0  0  0  0
  3  4  1  0  0  0  0
  3 13  1  0  0  0  0
  4  5  1  0  0  0  0
  5  6  1  0  0  0  0
  6  7  1  0  0  0  0
  7  8  1  0  0  0  0
  7 12  1  0  0  0  0
  8  9  1  0  0  0  0
  9 10  1  0  0  0  0
 10 11  1  0  0  0  0
 11 12  1  0  0  0  0
 13 14  2  0  0  0  0
 13 15  1  0  0  0  0
 15 16  2  0  0  0  0
 15 20  1  0  0  0  0
 16 17  1  0  0  0  0
 16 21  1  0  0  0  0
 17 18  2  0  0  0  0
 18 19  1  0  0  0  0
 19 20  2  0  0  0  0
 21 22  2  0  0  0  0
M  END
>  <DATABASE_ID>
DB17038

>  <DATABASE_NAME>
drugbank

>  <SMILES>
ClC1=C(NCCN2CCOCC2)C(=O)C2=C(C=CC=N2)C1=O

>  <INCHI_IDENTIFIER>
InChI=1S/C15H16ClN3O3/c16-11-13(18-4-5-19-6-8-22-9-7-19)15(21)12-10(14(11)20)2-1-3-17-12/h1-3,18H,4-9H2

>  <INCHI_KEY>
BMKPVDQDJQWBPD-UHFFFAOYSA-N

>  <FORMULA>
C15H16ClN3O3

>  <MOLECULAR_WEIGHT>
321.76

>  <EXACT_MASS>
321.0880191

>  <JCHEM_ACCEPTOR_COUNT>
6

>  <JCHEM_ATOM_COUNT>
38

>  <JCHEM_AVERAGE_NEUTRAL_MICROSPECIES_CHARGE>
0.02129000536975098

>  <JCHEM_AVERAGE_POLARIZABILITY>
32.15404074896534

>  <JCHEM_BIOAVAILABILITY>
1

>  <JCHEM_DONOR_COUNT>
1

>  <JCHEM_FORMAL_CHARGE>
0

>  <JCHEM_GHOSE_FILTER>
1

>  <JCHEM_IUPAC>
6-chloro-7-{[2-(morpholin-4-yl)ethyl]amino}-5,8-dihydroquinoline-5,8-dione

>  <ALOGPS_LOGP>
1.16

>  <JCHEM_LOGP>
0.12833403800000043

>  <ALOGPS_LOGS>
-2.85

>  <JCHEM_MDDR_LIKE_RULE>
0

>  <JCHEM_NEUTRAL_CHARGE>
0

>  <JCHEM_NUMBER_OF_RINGS>
3

>  <JCHEM_PHYSIOLOGICAL_CHARGE>
0

>  <JCHEM_PKA_STRONGEST_ACIDIC>
16.162774179136562

>  <JCHEM_PKA_STRONGEST_BASIC>
5.337521569533864

>  <JCHEM_POLAR_SURFACE_AREA>
71.53

>  <JCHEM_REFRACTIVITY>
83.9387

>  <JCHEM_ROTATABLE_BOND_COUNT>
4

>  <JCHEM_RULE_OF_FIVE>
1

>  <ALOGPS_SOLUBILITY>
4.58e-01 g/l

>  <JCHEM_TRADITIONAL_IUPAC>
6-cyclopropaneamido-N-[hydroxy(2H2)methyl]-4-{[2-methoxy-3-(1-methyl-1,2,4-triazol-3-yl)phenyl]amino}pyridazine-3-carboxamide

>  <JCHEM_VEBER_RULE>
0

>  <DRUGBANK_ID>
DB17038

>  <DRUG_GROUPS>
investigational

>  <GENERIC_NAME>
NSC-663284

>  <SYNONYMS>
5,8-quinolinedione, 6-chloro-7-((2-(4-morpholinyl)ethyl)amino)-; 6-chloro-7-((2-morpholinoethyl)amino)quinoline-5,8-dione

$$$$

 OpenBabel05042401512D

 29 34  0  0  0  0  0  0  0  0999 V2000
    4.2478   -5.5737    0.0000 C   0  0  0  0  0  0  0  0  0  0  0  0
    4.0762   -4.7668    0.0000 N   0  0  0  0  0  0  0  0  0  0  0  0
    3.3226   -4.4312    0.0000 C   0  0  0  0  0  0  0  0  0  0  0  0
    3.4088   -3.6107    0.0000 C   0  0  0  0  0  0  0  0  0  0  0  0
    2.7414   -3.1258    0.0000 C   0  0  0  0  0  0  0  0  0  0  0  0
    1.9877   -3.4614    0.0000 C   0  0  0  0  0  0  0  0  0  0  0  0
    1.9015   -4.2819    0.0000 C   0  0  0  0  0  0  0  0  0  0  0  0
    2.5689   -4.7668    0.0000 C   0  0  0  0  0  0  0  0  0  0  0  0
    4.2158   -3.4392    0.0000 C   0  0  0  0  0  0  0  0  0  0  0  0
    4.6283   -4.1537    0.0000 C   0  0  0  0  0  0  0  0  0  0  0  0
    5.4533   -4.1537    0.0000 C   0  0  0  0  0  0  0  0  0  0  0  0
    5.8658   -3.4392    0.0000 C   0  0  0  0  0  0  0  0  0  0  0  0
    6.6727   -3.6107    0.0000 C   0  0  0  0  0  0  0  0  0  0  0  0
    7.3402   -3.1258    0.0000 C   0  0  0  0  0  0  0  0  0  0  0  0
    8.0939   -3.4614    0.0000 C   0  0  0  0  0  0  0  0  0  0  0  0
    8.1801   -4.2819    0.0000 C   0  0  0  0  0  0  0  0  0  0  0  0
    7.5127   -4.7668    0.0000 C   0  0  0  0  0  0  0  0  0  0  0  0
    6.7590   -4.4312    0.0000 C   0  0  0  0  0  0  0  0  0  0  0  0
    6.0053   -4.7668    0.0000 N   0  0  0  0  0  0  0  0  0  0  0  0
    5.8338   -5.5737    0.0000 C   0  0  0  0  0  0  0  0  0  0  0  0
    5.0492   -5.8287    0.0000 C   0  0  0  0  0  0  0  0  0  0  0  0
    4.8776   -6.6357    0.0000 C   0  0  0  0  0  0  0  0  0  0  0  0
    4.7061   -7.4426    0.0000 N   0  0  0  0  0  0  0  0  0  0  0  0
    5.4533   -2.7247    0.0000 C   0  0  0  0  0  0  0  0  0  0  0  0
    4.6283   -2.7247    0.0000 C   0  0  0  0  0  0  0  0  0  0  0  0
    4.3733   -1.9401    0.0000 C   0  0  0  0  0  0  0  0  0  0  0  0
    3.5887   -1.6852    0.0000 O   0  0  0  0  0  0  0  0  0  0  0  0
    5.0408   -1.4552    0.0000 N   0  0  0  0  0  0  0  0  0  0  0  0
    5.7082   -1.9401    0.0000 C   0  0  0  0  0  0  0  0  0  0  0  0
  1  2  1  0  0  0  0
  2  3  1  0  0  0  0
  2 10  1  0  0  0  0
  3  4  2  0  0  0  0
  3  8  1  0  0  0  0
  4  5  1  0  0  0  0
  4  9  1  0  0  0  0
  5  6  2  0  0  0  0
  6  7  1  0  0  0  0
  7  8  2  0  0  0  0
  9 10  2  0  0  0  0
  9 25  1  0  0  0  0
 10 11  1  0  0  0  0
 11 12  2  0  0  0  0
 11 19  1  0  0  0  0
 12 13  1  0  0  0  0
 12 24  1  0  0  0  0
 13 14  2  0  0  0  0
 13 18  1  0  0  0  0
 14 15  1  0  0  0  0
 15 16  2  0  0  0  0
 16 17  1  0  0  0  0
 17 18  2  0  0  0  0
 18 19  1  0  0  0  0
 19 20  1  0  0  0  0
 20 21  1  0  0  0  0
 21 22  1  0  0  0  0
 22 23  3  0  0  0  0
 24 25  2  0  0  0  0
 24 29  1  0  0  0  0
 25 26  1  0  0  0  0
 26 27  2  0  0  0  0
 26 28  1  0  0  0  0
 28 29  1  0  0  0  0
M  END
>  <DATABASE_ID>
DB17029

>  <DATABASE_NAME>
drugbank

>  <SMILES>
CN1C2=C(C=CC=C2)C2=C1C1=C(C3=C2C(=O)NC3)C2=CC=CC=C2N1CCC#N

>  <INCHI_IDENTIFIER>
InChI=1S/C24H18N4O/c1-27-17-9-4-2-7-14(17)20-21-16(13-26-24(21)29)19-15-8-3-5-10-18(15)28(12-6-11-25)23(19)22(20)27/h2-5,7-10H,6,12-13H2,1H3,(H,26,29)

>  <INCHI_KEY>
VWVYILCFSYNJHF-UHFFFAOYSA-N

>  <FORMULA>
C24H18N4O

>  <MOLECULAR_WEIGHT>
378.435

>  <EXACT_MASS>
378.148061216

>  <JCHEM_ACCEPTOR_COUNT>
2

>  <JCHEM_ATOM_COUNT>
47

>  <JCHEM_AVERAGE_NEUTRAL_MICROSPECIES_CHARGE>
-2.909330335142631e-07

>  <JCHEM_AVERAGE_POLARIZABILITY>
41.869101484709006

>  <JCHEM_BIOAVAILABILITY>
1

>  <JCHEM_DONOR_COUNT>
1

>  <JCHEM_FORMAL_CHARGE>
0

>  <JCHEM_GHOSE_FILTER>
1

>  <JCHEM_IUPAC>
3-{23-methyl-14-oxo-3,13,23-triazahexacyclo[14.7.0.0^{2,10}.0^{4,9}.0^{11,15}.0^{17,22}]tricosa-1(16),2(10),4,6,8,11(15),17(22),18,20-nonaen-3-yl}propanenitrile

>  <ALOGPS_LOGP>
4.11

>  <JCHEM_LOGP>
3.2543662666666666

>  <ALOGPS_LOGS>
-3.83

>  <JCHEM_MDDR_LIKE_RULE>
0

>  <JCHEM_NEUTRAL_CHARGE>
0

>  <JCHEM_NUMBER_OF_RINGS>
6

>  <JCHEM_PHYSIOLOGICAL_CHARGE>
0

>  <JCHEM_PKA>
16.255506556086925

>  <JCHEM_PKA_STRONGEST_ACIDIC>
13.532165186404761

>  <JCHEM_PKA_STRONGEST_BASIC>
-1.4847372862710007

>  <JCHEM_POLAR_SURFACE_AREA>
62.75

>  <JCHEM_REFRACTIVITY>
112.97279999999996

>  <JCHEM_ROTATABLE_BOND_COUNT>
2

>  <JCHEM_RULE_OF_FIVE>
1

>  <ALOGPS_SOLUBILITY>
5.66e-02 g/l

>  <JCHEM_TRADITIONAL_IUPAC>
6-cyclopropaneamido-N-[hydroxy(2H2)methyl]-4-{[2-methoxy-3-(1-methyl-1,2,4-triazol-3-yl)phenyl]amino}pyridazine-3-carboxamide

>  <JCHEM_VEBER_RULE>
0

>  <DRUGBANK_ID>
DB17029

>  <DRUG_GROUPS>
investigational

>  <GENERIC_NAME>
Go-6976

>  <SYNONYMS>
12h-indolo(2,3-a)pyrrolo(3,4-c)carbazole-12-propanenitrile, 5,6,7,13-tetrahydro-13-methyl-5-oxo-

$$$$

 OpenBabel05042401512D

 30 29  0  0  1  0  0  0  0  0999 V2000
    7.8100    0.4130    0.0000 C   0  0  0  0  0  0  0  0  0  0  0  0
    7.0400    0.7094    0.0000 C   0  0  0  0  0  0  0  0  0  0  0  0
    6.3984    0.1907    0.0000 C   0  0  0  0  0  0  0  0  0  0  0  0
    6.9117    1.5243    0.0000 C   0  0  0  0  0  0  0  0  0  0  0  0
    7.5533    2.0429    0.0000 C   0  0  2  0  0  0  0  0  0  0  0  0
    7.4250    2.8579    0.0000 N   0  0  0  0  0  0  0  0  0  0  0  0
    6.6551    3.1542    0.0000 C   0  0  0  0  0  0  0  0  0  0  0  0
    6.0134    2.6356    0.0000 C   0  0  0  0  0  0  0  0  0  0  0  0
    6.5267    3.9692    0.0000 O   0  0  0  0  0  0  0  0  0  0  0  0
    8.3233    1.7466    0.0000 C   0  0  0  0  0  0  0  0  0  0  0  0
    8.4516    0.9316    0.0000 O   0  0  0  0  0  0  0  0  0  0  0  0
    8.9649    2.2652    0.0000 N   0  0  0  0  0  0  0  0  0  0  0  0
    9.7348    1.9688    0.0000 C   0  0  1  0  0  0  0  0  0  0  0  0
    9.8631    1.1539    0.0000 C   0  0  0  0  0  0  0  0  0  0  0  0
   10.6331    0.8575    0.0000 C   0  0  0  0  0  0  0  0  0  0  0  0
   11.2747    1.3761    0.0000 C   0  0  0  0  0  0  0  0  0  0  0  0
   10.7614    0.0426    0.0000 C   0  0  0  0  0  0  0  0  0  0  0  0
   10.3764    2.4874    0.0000 C   0  0  0  0  0  0  0  0  0  0  0  0
   10.2481    3.3024    0.0000 O   0  0  0  0  0  0  0  0  0  0  0  0
   11.1464    2.1911    0.0000 N   0  0  0  0  0  0  0  0  0  0  0  0
   11.7880    2.7097    0.0000 C   0  0  1  0  0  0  0  0  0  0  0  0
   12.5579    2.4134    0.0000 C   0  0  0  0  0  0  0  0  0  0  0  0
   13.1995    2.9320    0.0000 C   0  0  0  0  0  0  0  0  0  0  0  0
   13.9695    2.6356    0.0000 C   0  0  0  0  0  0  0  0  0  0  0  0
   14.6111    3.1542    0.0000 N   0  0  0  0  0  0  0  0  0  0  0  0
   15.3810    2.8579    0.0000 C   0  0  0  0  0  0  0  0  0  0  0  0
   16.0226    3.3765    0.0000 N   0  0  0  0  0  0  0  0  0  0  0  0
   15.5093    2.0429    0.0000 N   0  0  0  0  0  0  0  0  0  0  0  0
   11.6597    3.5247    0.0000 C   0  0  0  0  0  0  0  0  0  0  0  0
   12.3013    4.0433    0.0000 O   0  0  0  0  0  0  0  0  0  0  0  0
  1  2  1  0  0  0  0
  2  3  1  0  0  0  0
  2  4  1  0  0  0  0
  5  4  1  6  0  0  0
  5  6  1  0  0  0  0
  5 10  1  0  0  0  0
  6  7  1  0  0  0  0
  7  8  1  0  0  0  0
  7  9  2  0  0  0  0
 10 11  2  0  0  0  0
 10 12  1  0  0  0  0
 13 12  1  6  0  0  0
 13 14  1  0  0  0  0
 13 18  1  0  0  0  0
 14 15  1  0  0  0  0
 15 16  1  0  0  0  0
 15 17  1  0  0  0  0
 18 19  2  0  0  0  0
 18 20  1  0  0  0  0
 21 20  1  6  0  0  0
 21 22  1  0  0  0  0
 21 29  1  0  0  0  0
 22 23  1  0  0  0  0
 23 24  1  0  0  0  0
 24 25  1  0  0  0  0
 25 26  1  0  0  0  0
 26 27  1  0  0  0  0
 26 28  2  0  0  0  0
 29 30  2  0  0  0  0
M  END
>  <DATABASE_ID>
DB16961

>  <DATABASE_NAME>
drugbank

>  <SMILES>
CC(C)C[C@H](NC(C)=O)C(=O)N[C@@H](CC(C)C)C(=O)N[C@@H](CCCNC(N)=N)C=O

>  <INCHI_IDENTIFIER>
InChI=1S/C20H38N6O4/c1-12(2)9-16(24-14(5)28)19(30)26-17(10-13(3)4)18(29)25-15(11-27)7-6-8-23-20(21)22/h11-13,15-17H,6-10H2,1-5H3,(H,24,28)(H,25,29)(H,26,30)(H4,21,22,23)/t15-,16-,17-/m0/s1

>  <INCHI_KEY>
GDBQQVLCIARPGH-ULQDDVLXSA-N

>  <FORMULA>
C20H38N6O4

>  <MOLECULAR_WEIGHT>
426.562

>  <EXACT_MASS>
426.295453728

>  <JCHEM_ACCEPTOR_COUNT>
7

>  <JCHEM_ATOM_COUNT>
68

>  <JCHEM_AVERAGE_NEUTRAL_MICROSPECIES_CHARGE>
0.9999817284169662

>  <JCHEM_AVERAGE_POLARIZABILITY>
47.10827036977739

>  <JCHEM_BIOAVAILABILITY>
0

>  <JCHEM_DONOR_COUNT>
6

>  <JCHEM_FORMAL_CHARGE>
0

>  <JCHEM_GHOSE_FILTER>
0

>  <JCHEM_IUPAC>
(2S)-N-[(1S)-1-{[(2S)-5-carbamimidamido-1-oxopentan-2-yl]carbamoyl}-3-methylbutyl]-2-acetamido-4-methylpentanamide

>  <ALOGPS_LOGP>
0.18

>  <JCHEM_LOGP>
-0.7742739944772

>  <ALOGPS_LOGS>
-3.62

>  <JCHEM_MDDR_LIKE_RULE>
0

>  <JCHEM_NEUTRAL_CHARGE>
1

>  <JCHEM_NUMBER_OF_RINGS>
0

>  <JCHEM_PHYSIOLOGICAL_CHARGE>
1

>  <JCHEM_PKA>
13.102950869394029

>  <JCHEM_PKA_STRONGEST_ACIDIC>
12.491961691486416

>  <JCHEM_PKA_STRONGEST_BASIC>
11.900519604951558

>  <JCHEM_POLAR_SURFACE_AREA>
166.27

>  <JCHEM_REFRACTIVITY>
124.38349999999998

>  <JCHEM_ROTATABLE_BOND_COUNT>
14

>  <JCHEM_RULE_OF_FIVE>
0

>  <ALOGPS_SOLUBILITY>
1.02e-01 g/l

>  <JCHEM_TRADITIONAL_IUPAC>
6-cyclopropaneamido-N-[hydroxy(2H2)methyl]-4-{[2-methoxy-3-(1-methyl-1,2,4-triazol-3-yl)phenyl]amino}pyridazine-3-carboxamide

>  <JCHEM_VEBER_RULE>
0

>  <DRUGBANK_ID>
DB16961

>  <DRUG_GROUPS>
investigational

>  <GENERIC_NAME>
Leupeptin

>  <SYNONYMS>
Acetyl-l-leucyl-l-leucyl-l-argininal; Acetyl-leucyl-leucyl-argininal; L-leucinamide, n-acetyl-l-leucyl-n-((1s)-4-((aminoiminomethyl)amino)-1-formylbutyl)-; L-leucinamide, n-acetyl-l-leucyl-n-(4-((aminoiminomethyl)amino)-1-formylbutyl)-, (s)-; Leupeptins

$$$$

 OpenBabel05042401512D

 31 33  0  0  0  0  0  0  0  0999 V2000
    8.0854   -8.8925    0.0000 C   0  0  0  0  0  0  0  0  0  0  0  0
    8.0854   -8.0675    0.0000 C   0  0  0  0  0  0  0  0  0  0  0  0
    8.7999   -7.6550    0.0000 C   0  0  0  0  0  0  0  0  0  0  0  0
    7.3709   -7.6550    0.0000 C   0  0  0  0  0  0  0  0  0  0  0  0
    7.3709   -6.8300    0.0000 N   0  0  0  0  0  0  0  0  0  0  0  0
    6.6565   -6.4175    0.0000 C   0  0  0  0  0  0  0  0  0  0  0  0
    6.6565   -5.5925    0.0000 C   0  0  0  0  0  0  0  0  0  0  0  0
    5.9420   -5.1800    0.0000 C   0  0  0  0  0  0  0  0  0  0  0  0
    5.9420   -4.3550    0.0000 N   0  0  0  0  0  0  0  0  0  0  0  0
    5.2275   -3.9425    0.0000 C   0  0  0  0  0  0  0  0  0  0  0  0
    5.2275   -3.1175    0.0000 C   0  0  0  0  0  0  0  0  0  0  0  0
    5.9420   -2.7050    0.0000 N   0  0  0  0  0  0  0  0  0  0  0  0
    5.9420   -1.8800    0.0000 C   0  0  0  0  0  0  0  0  0  0  0  0
    5.2275   -1.4675    0.0000 C   0  0  0  0  0  0  0  0  0  0  0  0
    5.2275   -0.6425    0.0000 C   0  0  0  0  0  0  0  0  0  0  0  0
    4.5131   -0.2300    0.0000 N   0  0  0  0  0  0  0  0  0  0  0  0
    4.5131    0.5950    0.0000 C   0  0  0  0  0  0  0  0  0  0  0  0
    3.8456    1.0799    0.0000 N   0  0  0  0  0  0  0  0  0  0  0  0
    4.1006    1.8645    0.0000 C   0  0  0  0  0  0  0  0  0  0  0  0
    3.6881    2.5790    0.0000 C   0  0  0  0  0  0  0  0  0  0  0  0
    4.1006    3.2935    0.0000 C   0  0  0  0  0  0  0  0  0  0  0  0
    4.9256    3.2935    0.0000 C   0  0  0  0  0  0  0  0  0  0  0  0
    5.3381    2.5790    0.0000 C   0  0  0  0  0  0  0  0  0  0  0  0
    4.9256    1.8645    0.0000 C   0  0  0  0  0  0  0  0  0  0  0  0
    5.1805    1.0799    0.0000 N   0  0  0  0  0  0  0  0  0  0  0  0
    6.6565   -3.1175    0.0000 C   0  0  0  0  0  0  0  0  0  0  0  0
    6.6565   -3.9425    0.0000 C   0  0  0  0  0  0  0  0  0  0  0  0
    8.0854   -6.4175    0.0000 C   0  0  0  0  0  0  0  0  0  0  0  0
    8.0854   -5.5925    0.0000 C   0  0  0  0  0  0  0  0  0  0  0  0
    7.3709   -5.1800    0.0000 C   0  0  0  0  0  0  0  0  0  0  0  0
    8.7999   -5.1800    0.0000 C   0  0  0  0  0  0  0  0  0  0  0  0
  1  2  1  0  0  0  0
  2  3  1  0  0  0  0
  2  4  1  0  0  0  0
  4  5  1  0  0  0  0
  5  6  1  0  0  0  0
  5 28  1  0  0  0  0
  6  7  1  0  0  0  0
  7  8  1  0  0  0  0
  8  9  1  0  0  0  0
  9 10  1  0  0  0  0
  9 27  1  0  0  0  0
 10 11  1  0  0  0  0
 11 12  1  0  0  0  0
 12 13  1  0  0  0  0
 12 26  1  0  0  0  0
 13 14  1  0  0  0  0
 14 15  1  0  0  0  0
 15 16  1  0  0  0  0
 16 17  1  0  0  0  0
 17 18  2  0  0  0  0
 17 25  1  0  0  0  0
 18 19  1  0  0  0  0
 19 20  2  0  0  0  0
 19 24  1  0  0  0  0
 20 21  1  0  0  0  0
 21 22  2  0  0  0  0
 22 23  1  0  0  0  0
 23 24  2  0  0  0  0
 24 25  1  0  0  0  0
 26 27  1  0  0  0  0
 28 29  1  0  0  0  0
 29 30  1  0  0  0  0
 29 31  1  0  0  0  0
M  END
>  <DATABASE_ID>
DB16954

>  <DATABASE_NAME>
drugbank

>  <SMILES>
CC(C)CN(CCCN1CCN(CCCNC2=NC3=CC=CC=C3N2)CC1)CC(C)C

>  <INCHI_IDENTIFIER>
InChI=1S/C25H44N6/c1-21(2)19-31(20-22(3)4)14-8-13-30-17-15-29(16-18-30)12-7-11-26-25-27-23-9-5-6-10-24(23)28-25/h5-6,9-10,21-22H,7-8,11-20H2,1-4H3,(H2,26,27,28)

>  <INCHI_KEY>
KLKKWCPJBTXWOV-UHFFFAOYSA-N

>  <FORMULA>
C25H44N6

>  <MOLECULAR_WEIGHT>
428.669

>  <EXACT_MASS>
428.362745441

>  <JCHEM_ACCEPTOR_COUNT>
5

>  <JCHEM_ATOM_COUNT>
75

>  <JCHEM_AVERAGE_NEUTRAL_MICROSPECIES_CHARGE>
2.1737867554415446

>  <JCHEM_AVERAGE_POLARIZABILITY>
54.544442958151066

>  <JCHEM_BIOAVAILABILITY>
1

>  <JCHEM_DONOR_COUNT>
2

>  <JCHEM_FORMAL_CHARGE>
0

>  <JCHEM_GHOSE_FILTER>
0

>  <JCHEM_IUPAC>
N-[3-(4-{3-[bis(2-methylpropyl)amino]propyl}piperazin-1-yl)propyl]-1H-1,3-benzodiazol-2-amine

>  <ALOGPS_LOGP>
4.37

>  <JCHEM_LOGP>
3.7540260744668155

>  <ALOGPS_LOGS>
-3.74

>  <JCHEM_MDDR_LIKE_RULE>
1

>  <JCHEM_NEUTRAL_CHARGE>
3

>  <JCHEM_NUMBER_OF_RINGS>
3

>  <JCHEM_PHYSIOLOGICAL_CHARGE>
2

>  <JCHEM_PKA_STRONGEST_ACIDIC>
12.4463112056305

>  <JCHEM_PKA_STRONGEST_BASIC>
10.946716401325817

>  <JCHEM_POLAR_SURFACE_AREA>
50.43

>  <JCHEM_REFRACTIVITY>
133.94310000000004

>  <JCHEM_ROTATABLE_BOND_COUNT>
13

>  <JCHEM_RULE_OF_FIVE>
1

>  <ALOGPS_SOLUBILITY>
7.79e-02 g/l

>  <JCHEM_TRADITIONAL_IUPAC>
6-cyclopropaneamido-N-[hydroxy(2H2)methyl]-4-{[2-methoxy-3-(1-methyl-1,2,4-triazol-3-yl)phenyl]amino}pyridazine-3-carboxamide

>  <JCHEM_VEBER_RULE>
0

>  <DRUGBANK_ID>
DB16954

>  <DRUG_GROUPS>
investigational

>  <GENERIC_NAME>
Ezeprogind

>  <SYNONYMS>
1,4-piperazinedipropanamine, n'-1h-benzimidazol-2-yl-n,n-bis(2-methylpropyl)-; 1,4-piperazinedipropanamine, n4-1h-benzimidazol-2-yl-n1,n1-bis(2-methylpropyl)-; Azp-2006 free base; Azp2006 free base; N-(3-(4-(3-(diisobutylamino)propyl)piperazin-1-yl)propyl)-1h-benzo(d)imidazol-2-amine; N4-1h-benzimidazol-2-yl-n1,n1-bis(2-methylpropyl)-1,4-piperazinedipropanamine

>  <SALTS>
Ezeprogind disulfate

$$$$

 OpenBabel05042401512D

 24 24  0  0  0  0  0  0  0  0999 V2000
   -5.3279    0.8307    0.0000 C   0  0  0  0  0  0  0  0  0  0  0  0
   -5.3291    0.0010    0.0000 C   0  0  0  0  0  0  0  0  0  0  0  0
   -4.6124   -0.4127    0.0000 C   0  0  0  0  0  0  0  0  0  0  0  0
   -4.6142    1.2445    0.0000 C   0  0  0  0  0  0  0  0  0  0  0  0
   -3.8970    0.8342    0.0000 C   0  0  0  0  0  0  0  0  0  0  0  0
   -3.8981    0.0036    0.0000 C   0  0  0  0  0  0  0  0  0  0  0  0
   -3.1833   -0.4103    0.0000 C   0  0  0  0  0  0  0  0  0  0  0  0
   -2.4650    0.0036    0.0000 N   0  0  0  0  0  0  0  0  0  0  0  0
   -1.7530   -0.4113    0.0000 C   0  0  0  0  0  0  0  0  0  0  0  0
   -1.0363   -0.0004    0.0000 N   0  0  0  0  0  0  0  0  0  0  0  0
   -0.3275   -0.4172    0.0000 C   0  0  0  0  0  0  0  0  0  0  0  0
    0.3881   -0.0086    0.0000 N   0  0  0  0  0  0  0  0  0  0  0  0
    1.0919   -0.4276    0.0000 C   0  0  0  0  0  0  0  0  0  0  0  0
    1.8086   -0.0256    0.0000 C   0  0  0  0  0  0  0  0  0  0  0  0
    2.5094   -0.4455    0.0000 C   0  0  0  0  0  0  0  0  0  0  0  0
    3.2248   -0.0463    0.0000 C   0  0  0  0  0  0  0  0  0  0  0  0
    3.9220   -0.4681    0.0000 C   0  0  0  0  0  0  0  0  0  0  0  0
    4.6369   -0.0713    0.0000 C   0  0  0  0  0  0  0  0  0  0  0  0
    5.3290   -0.4940    0.0000 C   0  0  0  0  0  0  0  0  0  0  0  0
    6.0458   -0.1060    0.0000 C   0  0  0  0  0  0  0  0  0  0  0  0
   -6.0444    1.2440    0.0000 Cl  0  0  0  0  0  0  0  0  0  0  0  0
   -6.0458   -0.4118    0.0000 Cl  0  0  0  0  0  0  0  0  0  0  0  0
   -1.7561   -1.2385    0.0000 N   0  0  0  0  0  0  0  0  0  0  0  0
   -0.3329   -1.2445    0.0000 N   0  0  0  0  0  0  0  0  0  0  0  0
  1  2  2  0  0  0  0
  1 21  1  0  0  0  0
  2  3  1  0  0  0  0
  2 22  1  0  0  0  0
  3  6  2  0  0  0  0
  4  1  1  0  0  0  0
  5  4  2  0  0  0  0
  5  6  1  0  0  0  0
  6  7  1  0  0  0  0
  7  8  1  0  0  0  0
  8  9  1  0  0  0  0
  9 10  1  0  0  0  0
  9 23  2  0  0  0  0
 10 11  1  0  0  0  0
 11 12  1  0  0  0  0
 11 24  2  0  0  0  0
 12 13  1  0  0  0  0
 13 14  1  0  0  0  0
 14 15  1  0  0  0  0
 15 16  1  0  0  0  0
 16 17  1  0  0  0  0
 17 18  1  0  0  0  0
 18 19  1  0  0  0  0
 19 20  1  0  0  0  0
M  END
>  <DATABASE_ID>
DB16889

>  <DATABASE_NAME>
drugbank

>  <SMILES>
CCCCCCCCNC(=N)NC(=N)NCC1=CC(Cl)=C(Cl)C=C1

>  <INCHI_IDENTIFIER>
InChI=1S/C17H27Cl2N5/c1-2-3-4-5-6-7-10-22-16(20)24-17(21)23-12-13-8-9-14(18)15(19)11-13/h8-9,11H,2-7,10,12H2,1H3,(H5,20,21,22,23,24)

>  <INCHI_KEY>
ZZQMUJGZCZTLQD-UHFFFAOYSA-N

>  <FORMULA>
C17H27Cl2N5

>  <MOLECULAR_WEIGHT>
372.34

>  <EXACT_MASS>
371.1643513

>  <JCHEM_ACCEPTOR_COUNT>
5

>  <JCHEM_ATOM_COUNT>
51

>  <JCHEM_AVERAGE_NEUTRAL_MICROSPECIES_CHARGE>
1.9963988144799099

>  <JCHEM_AVERAGE_POLARIZABILITY>
41.95506664154381

>  <JCHEM_BIOAVAILABILITY>
1

>  <JCHEM_DONOR_COUNT>
5

>  <JCHEM_FORMAL_CHARGE>
0

>  <JCHEM_GHOSE_FILTER>
1

>  <JCHEM_IUPAC>
1-{N'-[(3,4-dichlorophenyl)methyl]carbamimidamido}-N-octylmethanimidamide

>  <ALOGPS_LOGP>
3.93

>  <JCHEM_LOGP>
5.131940213

>  <ALOGPS_LOGS>
-4.44

>  <JCHEM_MDDR_LIKE_RULE>
0

>  <JCHEM_NEUTRAL_CHARGE>
2

>  <JCHEM_NUMBER_OF_RINGS>
1

>  <JCHEM_PHYSIOLOGICAL_CHARGE>
2

>  <JCHEM_PKA_STRONGEST_BASIC>
11.454721859627243

>  <JCHEM_POLAR_SURFACE_AREA>
83.78999999999999

>  <JCHEM_REFRACTIVITY>
122.62239999999998

>  <JCHEM_ROTATABLE_BOND_COUNT>
9

>  <JCHEM_RULE_OF_FIVE>
0

>  <ALOGPS_SOLUBILITY>
1.36e-02 g/l

>  <JCHEM_TRADITIONAL_IUPAC>
tanshinone I

>  <JCHEM_VEBER_RULE>
0

>  <DRUGBANK_ID>
DB16889

>  <DRUG_GROUPS>
investigational

>  <GENERIC_NAME>
Olanexidine

>  <SALTS>
Olanexidine hydrochloride hydrate

$$$$

 OpenBabel05042401512D

 36 40  0  0  0  0  0  0  0  0999 V2000
   -3.5498    1.2430    0.0000 C   0  0  0  0  0  0  0  0  0  0  0  0
   -3.5498    0.4105    0.0000 C   0  0  0  0  0  0  0  0  0  0  0  0
   -2.8331    0.0029    0.0000 C   0  0  0  0  0  0  0  0  0  0  0  0
   -2.1229    0.4142    0.0000 C   0  0  0  0  0  0  0  0  0  0  0  0
   -2.1229    1.2433    0.0000 C   0  0  0  0  0  0  0  0  0  0  0  0
   -2.8350    1.6549    0.0000 C   0  0  0  0  0  0  0  0  0  0  0  0
   -1.4099    1.6539    0.0000 C   0  0  0  0  0  0  0  0  0  0  0  0
   -0.6901    1.2417    0.0000 N   0  0  0  0  0  0  0  0  0  0  0  0
   -0.6901    0.4170    0.0000 N   0  0  0  0  0  0  0  0  0  0  0  0
   -1.4047    0.0004    0.0000 C   0  0  0  0  0  0  0  0  0  0  0  0
   -1.4047   -0.8235    0.0000 C   0  0  0  0  0  0  0  0  0  0  0  0
   -0.6863   -1.2407    0.0000 C   0  0  0  0  0  0  0  0  0  0  0  0
   -0.6863   -2.0624    0.0000 C   0  0  0  0  0  0  0  0  0  0  0  0
   -1.4058   -2.4746    0.0000 C   0  0  0  0  0  0  0  0  0  0  0  0
   -2.1178   -2.0659    0.0000 C   0  0  0  0  0  0  0  0  0  0  0  0
   -2.1178   -1.2422    0.0000 C   0  0  0  0  0  0  0  0  0  0  0  0
   -2.8323   -2.4780    0.0000 F   0  0  0  0  0  0  0  0  0  0  0  0
    0.0245    1.6539    0.0000 C   0  0  0  0  0  0  0  0  0  0  0  0
    0.7391    1.2417    0.0000 C   0  0  0  0  0  0  0  0  0  0  0  0
    1.4539    1.6539    0.0000 N   0  0  0  0  0  0  0  0  0  0  0  0
    2.1685    1.2417    0.0000 C   0  0  0  0  0  0  0  0  0  0  0  0
    2.8880    1.6537    0.0000 C   0  0  0  0  0  0  0  0  0  0  0  0
    3.6002    1.2421    0.0000 C   0  0  0  0  0  0  0  0  0  0  0  0
    3.6002    0.4130    0.0000 C   0  0  0  0  0  0  0  0  0  0  0  0
    2.8898    0.0015    0.0000 C   0  0  0  0  0  0  0  0  0  0  0  0
    2.1685    0.4092    0.0000 C   0  0  0  0  0  0  0  0  0  0  0  0
    4.3874    0.1589    0.0000 N   0  0  0  0  0  0  0  0  0  0  0  0
    4.8698    0.8253    0.0000 C   0  0  0  0  0  0  0  0  0  0  0  0
    4.3873    1.4961    0.0000 O   0  0  0  0  0  0  0  0  0  0  0  0
    5.6985    0.8253    0.0000 C   0  0  0  0  0  0  0  0  0  0  0  0
    1.4539    2.4780    0.0000 C   0  0  0  0  0  0  0  0  0  0  0  0
    0.7391    0.4128    0.0000 O   0  0  0  0  0  0  0  0  0  0  0  0
   -1.4099    2.4780    0.0000 O   0  0  0  0  0  0  0  0  0  0  0  0
   -4.2645    1.6551    0.0000 O   0  0  0  0  0  0  0  0  0  0  0  0
   -4.9838    1.2430    0.0000 C   0  0  0  0  0  0  0  0  0  0  0  0
   -5.6985    1.6551    0.0000 C   0  0  0  0  0  0  0  0  0  0  0  0
  1  2  1  0  0  0  0
  1 34  1  0  0  0  0
  2  3  2  0  0  0  0
  3  4  1  0  0  0  0
  4  5  2  0  0  0  0
  4 10  1  0  0  0  0
  5  6  1  0  0  0  0
  5  7  1  0  0  0  0
  6  1  2  0  0  0  0
  7 33  2  0  0  0  0
  8  7  1  0  0  0  0
  8 18  1  0  0  0  0
  9  8  1  0  0  0  0
 10  9  2  0  0  0  0
 10 11  1  0  0  0  0
 11 16  1  0  0  0  0
 12 11  2  0  0  0  0
 13 12  1  0  0  0  0
 14 13  2  0  0  0  0
 15 14  1  0  0  0  0
 15 17  1  0  0  0  0
 16 15  2  0  0  0  0
 18 19  1  0  0  0  0
 19 20  1  0  0  0  0
 19 32  2  0  0  0  0
 20 21  1  0  0  0  0
 20 31  1  0  0  0  0
 21 26  1  0  0  0  0
 22 21  2  0  0  0  0
 23 22  1  0  0  0  0
 23 29  1  0  0  0  0
 24 23  2  0  0  0  0
 24 27  1  0  0  0  0
 25 24  1  0  0  0  0
 26 25  2  0  0  0  0
 27 28  2  0  0  0  0
 28 29  1  0  0  0  0
 28 30  1  0  0  0  0
 34 35  1  0  0  0  0
 35 36  1  0  0  0  0
M  END
>  <DATABASE_ID>
DB16878

>  <DATABASE_NAME>
drugbank

>  <SMILES>
CCOC1=CC2=C(C=C1)C(=NN(CC(=O)N(C)C1=CC3=C(C=C1)N=C(C)O3)C2=O)C1=CC=CC(F)=C1

>  <INCHI_IDENTIFIER>
InChI=1S/C27H23FN4O4/c1-4-35-20-9-10-21-22(14-20)27(34)32(30-26(21)17-6-5-7-18(28)12-17)15-25(33)31(3)19-8-11-23-24(13-19)36-16(2)29-23/h5-14H,4,15H2,1-3H3

>  <INCHI_KEY>
XRPSUWYWZUQALB-UHFFFAOYSA-N

>  <FORMULA>
C27H23FN4O4

>  <MOLECULAR_WEIGHT>
486.503

>  <EXACT_MASS>
486.1703334

>  <JCHEM_ACCEPTOR_COUNT>
5

>  <JCHEM_ATOM_COUNT>
59

>  <JCHEM_AVERAGE_NEUTRAL_MICROSPECIES_CHARGE>
-2.5262348745123793e-05

>  <JCHEM_AVERAGE_POLARIZABILITY>
50.89332159482797

>  <JCHEM_BIOAVAILABILITY>
1

>  <JCHEM_DONOR_COUNT>
0

>  <JCHEM_FORMAL_CHARGE>
0

>  <JCHEM_GHOSE_FILTER>
0

>  <JCHEM_IUPAC>
2-[7-ethoxy-4-(3-fluorophenyl)-1-oxo-1,2-dihydrophthalazin-2-yl]-N-methyl-N-(2-methyl-1,3-benzoxazol-6-yl)acetamide

>  <ALOGPS_LOGP>
3.89

>  <JCHEM_LOGP>
3.5482899073333343

>  <ALOGPS_LOGS>
-4.31

>  <JCHEM_MDDR_LIKE_RULE>
1

>  <JCHEM_NEUTRAL_CHARGE>
0

>  <JCHEM_NUMBER_OF_RINGS>
5

>  <JCHEM_PHYSIOLOGICAL_CHARGE>
0

>  <JCHEM_PKA_STRONGEST_ACIDIC>
11.58067354897343

>  <JCHEM_PKA_STRONGEST_BASIC>
0.9995560830742389

>  <JCHEM_POLAR_SURFACE_AREA>
88.24000000000001

>  <JCHEM_REFRACTIVITY>
131.07750000000001

>  <JCHEM_ROTATABLE_BOND_COUNT>
6

>  <JCHEM_RULE_OF_FIVE>
1

>  <ALOGPS_SOLUBILITY>
2.40e-02 g/l

>  <JCHEM_TRADITIONAL_IUPAC>
5-benzyl-N-[(3S)-5-methyl-4-oxo-2,3-dihydro-1,5-benzoxazepin-3-yl]-1H-1,2,4-triazole-3-carboxamide

>  <JCHEM_VEBER_RULE>
0

>  <DRUGBANK_ID>
DB16878

>  <DRUG_GROUPS>
investigational

>  <GENERIC_NAME>
FDL169

>  <SYNONYMS>
2-(7-ethoxy-4-(3-fluorophenyl)-1-oxophthalazin-2(1H)-yl)-N-methyl-N-(2-methylbenzo(D)oxazol-6-yl)acetamide; 2-(7-ethoxy-4-(3-fluorophenyl)-1-oxophthalazin-2(1H)-yl)-N-methyl-N-(2-methylbenzo[D]oxazol-6-yl)acetamide

$$$$

 OpenBabel05042401512D

 15 15  0  0  0  0  0  0  0  0999 V2000
    2.4752    0.3020    0.0000 S   0  0  0  0  0  0  0  0  0  0  0  0
    1.6501    0.3020    0.0000 C   0  0  0  0  0  0  0  0  0  0  0  0
    3.3002    0.3020    0.0000 O   0  0  0  0  0  0  0  0  0  0  0  0
    2.4752    1.1271    0.0000 O   0  0  0  0  0  0  0  0  0  0  0  0
    2.4752   -0.5229    0.0000 O   0  0  0  0  0  0  0  0  0  0  0  0
    1.2376   -0.4124    0.0000 C   0  0  0  0  0  0  0  0  0  0  0  0
    0.4125   -0.4124    0.0000 N   0  0  0  0  0  0  0  0  0  0  0  0
    0.0000   -1.1271    0.0000 C   0  0  0  0  0  0  0  0  0  0  0  0
    0.0000    0.3020    0.0000 C   0  0  0  0  0  0  0  0  0  0  0  0
   -0.8250   -1.1271    0.0000 C   0  0  0  0  0  0  0  0  0  0  0  0
   -0.8250    0.3020    0.0000 C   0  0  0  0  0  0  0  0  0  0  0  0
   -1.2375   -0.4124    0.0000 N   0  0  0  0  0  0  0  0  0  0  0  0
   -2.0627   -0.4124    0.0000 C   0  0  0  0  0  0  0  0  0  0  0  0
   -2.4751    0.3020    0.0000 C   0  0  0  0  0  0  0  0  0  0  0  0
   -3.3002    0.3020    0.0000 O   0  0  0  0  0  0  0  0  0  0  0  0
  1  2  1  0  0  0  0
  1  3  1  0  0  0  0
  1  4  2  0  0  0  0
  1  5  2  0  0  0  0
  2  6  1  0  0  0  0
  6  7  1  0  0  0  0
  7  8  1  0  0  0  0
  7  9  1  0  0  0  0
  8 10  1  0  0  0  0
  9 11  1  0  0  0  0
 10 12  1  0  0  0  0
 11 12  1  0  0  0  0
 12 13  1  0  0  0  0
 13 14  1  0  0  0  0
 14 15  1  0  0  0  0
M  END
>  <DATABASE_ID>
DB16872

>  <DATABASE_NAME>
drugbank

>  <SMILES>
OCCN1CCN(CCS(O)(=O)=O)CC1

>  <INCHI_IDENTIFIER>
InChI=1S/C8H18N2O4S/c11-7-5-9-1-3-10(4-2-9)6-8-15(12,13)14/h11H,1-8H2,(H,12,13,14)

>  <INCHI_KEY>
JKMHFZQWWAIEOD-UHFFFAOYSA-N

>  <FORMULA>
C8H18N2O4S

>  <MOLECULAR_WEIGHT>
238.3

>  <EXACT_MASS>
238.098728242

>  <JCHEM_ACCEPTOR_COUNT>
6

>  <JCHEM_ATOM_COUNT>
33

>  <JCHEM_AVERAGE_NEUTRAL_MICROSPECIES_CHARGE>
-0.4375293641579406

>  <JCHEM_AVERAGE_POLARIZABILITY>
24.523016336432654

>  <JCHEM_BIOAVAILABILITY>
1

>  <JCHEM_DONOR_COUNT>
2

>  <JCHEM_FORMAL_CHARGE>
0

>  <JCHEM_GHOSE_FILTER>
0

>  <JCHEM_IUPAC>
2-[4-(2-hydroxyethyl)piperazin-1-yl]ethane-1-sulfonic acid

>  <ALOGPS_LOGP>
-1.95

>  <JCHEM_LOGP>
-3.1123047286842005

>  <ALOGPS_LOGS>
-0.66

>  <JCHEM_MDDR_LIKE_RULE>
0

>  <JCHEM_NEUTRAL_CHARGE>
0

>  <JCHEM_NUMBER_OF_RINGS>
1

>  <JCHEM_PHYSIOLOGICAL_CHARGE>
0

>  <JCHEM_PKA>
15.593097662745091

>  <JCHEM_PKA_STRONGEST_ACIDIC>
-1.3364348908824941

>  <JCHEM_PKA_STRONGEST_BASIC>
7.339400135085581

>  <JCHEM_POLAR_SURFACE_AREA>
81.08

>  <JCHEM_REFRACTIVITY>
57.01680000000001

>  <JCHEM_ROTATABLE_BOND_COUNT>
5

>  <JCHEM_RULE_OF_FIVE>
1

>  <ALOGPS_SOLUBILITY>
5.25e+01 g/l

>  <JCHEM_TRADITIONAL_IUPAC>
(1R,10S)-8-oxatetracyclo[8.7.0.0^{2,7}.0^{12,17}]heptadeca-2(7),3,5,12,14,16-hexaene-5,6,10,14,15-pentol

>  <JCHEM_VEBER_RULE>
0

>  <DRUGBANK_ID>
DB16872

>  <DRUG_GROUPS>
investigational

>  <GENERIC_NAME>
HEPES

>  <SYNONYMS>
4-(2-Hydroxyethyl)-1-piperazineethane sulfonic acid; 4-(2-Hydroxyethyl)-1-piperazineethane sulphonic acid

$$$$

 OpenBabel05042401512D

 33 37  0  0  1  0  0  0  0  0999 V2000
   -1.8722    4.0400    0.0000 C   0  0  0  0  0  0  0  0  0  0  0  0
   -2.5867    3.6275    0.0000 C   0  0  0  0  0  0  0  0  0  0  0  0
   -2.5867    2.8025    0.0000 C   0  0  0  0  0  0  0  0  0  0  0  0
   -1.8722    2.3901    0.0000 C   0  0  0  0  0  0  0  0  0  0  0  0
   -1.1577    2.8025    0.0000 C   0  0  0  0  0  0  0  0  0  0  0  0
   -1.1577    3.6275    0.0000 C   0  0  0  0  0  0  0  0  0  0  0  0
   -0.3731    3.8824    0.0000 S   0  0  0  0  0  0  0  0  0  0  0  0
    0.1117    3.2150    0.0000 C   0  0  0  0  0  0  0  0  0  0  0  0
   -0.3731    2.5476    0.0000 N   0  0  0  0  0  0  0  0  0  0  0  0
    0.9367    3.2150    0.0000 C   0  0  3  0  0  0  0  0  0  0  0  0
    1.3492    2.5005    0.0000 C   0  0  0  0  0  0  0  0  0  0  0  0
    1.3492    3.9296    0.0000 C   0  0  0  0  0  0  0  0  0  0  0  0
    1.7617    4.6440    0.0000 N   0  0  0  0  0  0  0  0  0  0  0  0
    2.1742    2.5005    0.0000 C   0  0  0  0  0  0  0  0  0  0  0  0
    0.9367    1.7861    0.0000 N   0  0  0  0  0  0  0  0  0  0  0  0
    1.3492    1.0716    0.0000 C   0  0  0  0  0  0  0  0  0  0  0  0
    2.1742    1.0716    0.0000 N   0  0  0  0  0  0  0  0  0  0  0  0
    2.5867    1.7861    0.0000 C   0  0  0  0  0  0  0  0  0  0  0  0
    0.9367    0.3571    0.0000 O   0  0  0  0  0  0  0  0  0  0  0  0
    0.1117    0.3571    0.0000 C   0  0  0  0  0  0  0  0  0  0  0  0
   -0.3007   -0.3572    0.0000 C   0  0  0  0  0  0  0  0  0  0  0  0
   -1.1257   -0.3572    0.0000 C   0  0  0  0  0  0  0  0  0  0  0  0
   -1.5382   -1.0717    0.0000 C   0  0  0  0  0  0  0  0  0  0  0  0
   -1.1257   -1.7862    0.0000 C   0  0  0  0  0  0  0  0  0  0  0  0
   -0.3007   -1.7862    0.0000 C   0  0  0  0  0  0  0  0  0  0  0  0
    0.1117   -1.0717    0.0000 C   0  0  0  0  0  0  0  0  0  0  0  0
   -1.5382   -2.5007    0.0000 C   0  0  0  0  0  0  0  0  0  0  0  0
   -1.1257   -3.2151    0.0000 N   0  0  0  0  0  0  0  0  0  0  0  0
   -0.3007   -3.2151    0.0000 C   0  0  0  0  0  0  0  0  0  0  0  0
   -1.5382   -3.9296    0.0000 C   0  0  0  0  0  0  0  0  0  0  0  0
   -1.1257   -4.6441    0.0000 C   0  0  0  0  0  0  0  0  0  0  0  0
   -0.3007   -4.6441    0.0000 O   0  0  0  0  0  0  0  0  0  0  0  0
    0.1117   -3.9296    0.0000 C   0  0  0  0  0  0  0  0  0  0  0  0
  1  2  2  0  0  0  0
  1  6  1  0  0  0  0
  2  3  1  0  0  0  0
  3  4  2  0  0  0  0
  4  5  1  0  0  0  0
  5  6  2  0  0  0  0
  7  6  1  0  0  0  0
  7  8  1  0  0  0  0
  8  9  2  0  0  0  0
  8 10  1  0  0  0  0
  9  5  1  0  0  0  0
 10 11  1  0  0  0  0
 10 12  1  0  0  0  0
 11 15  1  0  0  0  0
 12 13  3  0  0  0  0
 14 11  2  0  0  0  0
 14 18  1  0  0  0  0
 15 16  2  0  0  0  0
 16 17  1  0  0  0  0
 16 19  1  0  0  0  0
 17 18  2  0  0  0  0
 19 20  1  0  0  0  0
 20 21  1  0  0  0  0
 21 22  2  0  0  0  0
 21 26  1  0  0  0  0
 22 23  1  0  0  0  0
 23 24  2  0  0  0  0
 24 25  1  0  0  0  0
 24 27  1  0  0  0  0
 25 26  2  0  0  0  0
 27 28  1  0  0  0  0
 28 30  1  0  0  0  0
 29 28  1  0  0  0  0
 29 33  1  0  0  0  0
 30 31  1  0  0  0  0
 31 32  1  0  0  0  0
 32 33  1  0  0  0  0
M  END
>  <DATABASE_ID>
DB16851

>  <DATABASE_NAME>
drugbank

>  <SMILES>
N#CC(C1=NC2=C(S1)C=CC=C2)C1=CC=NC(OCC2=CC=C(CN3CCOCC3)C=C2)=N1

>  <INCHI_IDENTIFIER>
InChI=1S/C25H23N5O2S/c26-15-20(24-28-22-3-1-2-4-23(22)33-24)21-9-10-27-25(29-21)32-17-19-7-5-18(6-8-19)16-30-11-13-31-14-12-30/h1-10,20H,11-14,16-17H2

>  <INCHI_KEY>
XCPPIJCBCWUBNT-UHFFFAOYSA-N

>  <FORMULA>
C25H23N5O2S

>  <MOLECULAR_WEIGHT>
457.55

>  <EXACT_MASS>
457.157246175

>  <JCHEM_ACCEPTOR_COUNT>
7

>  <JCHEM_ATOM_COUNT>
56

>  <JCHEM_AVERAGE_NEUTRAL_MICROSPECIES_CHARGE>
0.4439074044984893

>  <JCHEM_AVERAGE_POLARIZABILITY>
49.09103843228446

>  <JCHEM_BIOAVAILABILITY>
1

>  <JCHEM_DONOR_COUNT>
0

>  <JCHEM_FORMAL_CHARGE>
0

>  <JCHEM_GHOSE_FILTER>
1

>  <JCHEM_IUPAC>
2-(1,3-benzothiazol-2-yl)-2-[2-({4-[(morpholin-4-yl)methyl]phenyl}methoxy)pyrimidin-4-yl]acetonitrile

>  <ALOGPS_LOGP>
3.84

>  <JCHEM_LOGP>
4.294328214333334

>  <ALOGPS_LOGS>
-4.69

>  <JCHEM_MDDR_LIKE_RULE>
1

>  <JCHEM_NEUTRAL_CHARGE>
1

>  <JCHEM_NUMBER_OF_RINGS>
5

>  <JCHEM_PHYSIOLOGICAL_CHARGE>
0

>  <JCHEM_PKA_STRONGEST_ACIDIC>
9.390896495108189

>  <JCHEM_PKA_STRONGEST_BASIC>
6.909285463676007

>  <JCHEM_POLAR_SURFACE_AREA>
84.16

>  <JCHEM_REFRACTIVITY>
126.49359999999999

>  <JCHEM_ROTATABLE_BOND_COUNT>
7

>  <JCHEM_RULE_OF_FIVE>
1

>  <ALOGPS_SOLUBILITY>
9.42e-03 g/l

>  <JCHEM_TRADITIONAL_IUPAC>
N-{2-methyl-5-[(methylamino)methyl]phenyl}-4-[(4-phenylquinazolin-2-yl)amino]benzamide

>  <JCHEM_VEBER_RULE>
0

>  <DRUGBANK_ID>
DB16851

>  <DRUG_GROUPS>
investigational

>  <GENERIC_NAME>
Bentamapimod

>  <SYNONYMS>
Bentamapimod

$$$$

 OpenBabel05042401512D

 28 31  0  0  1  0  0  0  0  0999 V2000
   -2.9440    0.6592    0.0000 C   0  0  0  0  0  0  0  0  0  0  0  0
   -2.2295    1.0716    0.0000 C   0  0  0  0  0  0  0  0  0  0  0  0
   -1.5149    0.6592    0.0000 C   0  0  0  0  0  0  0  0  0  0  0  0
   -1.5149   -0.1657    0.0000 C   0  0  0  0  0  0  0  0  0  0  0  0
   -2.2295   -0.5783    0.0000 C   0  0  0  0  0  0  0  0  0  0  0  0
   -2.9440   -0.1657    0.0000 N   0  0  0  0  0  0  0  0  0  0  0  0
   -3.6584    1.0716    0.0000 C   0  0  0  0  0  0  0  0  0  0  0  0
   -3.6584    1.8967    0.0000 O   0  0  0  0  0  0  0  0  0  0  0  0
   -4.3729    0.6592    0.0000 N   0  0  0  0  0  0  0  0  0  0  0  0
   -5.0874    1.0716    0.0000 C   0  0  0  0  0  0  0  0  0  0  0  0
   -0.8006    1.0716    0.0000 O   0  0  0  0  0  0  0  0  0  0  0  0
    2.1274    0.9141    0.0000 S   0  0  0  0  0  0  0  0  0  0  0  0
    2.6124    0.2467    0.0000 C   0  0  0  0  0  0  0  0  0  0  0  0
    2.1274   -0.4206    0.0000 N   0  0  0  0  0  0  0  0  0  0  0  0
    1.3427   -0.1657    0.0000 C   0  0  0  0  0  0  0  0  0  0  0  0
    1.3427    0.6592    0.0000 C   0  0  0  0  0  0  0  0  0  0  0  0
    0.6284   -0.5783    0.0000 C   0  0  0  0  0  0  0  0  0  0  0  0
   -0.0861   -0.1657    0.0000 C   0  0  0  0  0  0  0  0  0  0  0  0
   -0.0861    0.6592    0.0000 C   0  0  0  0  0  0  0  0  0  0  0  0
    0.6284    1.0716    0.0000 C   0  0  0  0  0  0  0  0  0  0  0  0
    3.4374    0.2467    0.0000 N   0  0  0  0  0  0  0  0  0  0  0  0
    3.8498   -0.4677    0.0000 C   0  0  1  0  0  0  0  0  0  0  0  0
    3.4374   -1.1822    0.0000 C   0  0  1  0  0  0  0  0  0  0  0  0
    3.8498   -1.8966    0.0000 C   0  0  0  0  0  0  0  0  0  0  0  0
    4.6748   -1.8966    0.0000 C   0  0  0  0  0  0  0  0  0  0  0  0
    5.0874   -1.1822    0.0000 C   0  0  0  0  0  0  0  0  0  0  0  0
    4.6748   -0.4677    0.0000 C   0  0  0  0  0  0  0  0  0  0  0  0
    2.6124   -1.1822    0.0000 O   0  0  0  0  0  0  0  0  0  0  0  0
  1  2  1  0  0  0  0
  1  6  2  0  0  0  0
  1  7  1  0  0  0  0
  2  3  2  0  0  0  0
  3  4  1  0  0  0  0
  3 11  1  0  0  0  0
  4  5  2  0  0  0  0
  5  6  1  0  0  0  0
  7  8  2  0  0  0  0
  7  9  1  0  0  0  0
  9 10  1  0  0  0  0
 11 19  1  0  0  0  0
 12 13  1  0  0  0  0
 12 16  1  0  0  0  0
 13 14  2  0  0  0  0
 13 21  1  0  0  0  0
 14 15  1  0  0  0  0
 15 16  1  0  0  0  0
 17 18  1  0  0  0  0
 17 15  2  0  0  0  0
 18 19  2  0  0  0  0
 19 20  1  0  0  0  0
 20 16  2  0  0  0  0
 22 23  1  0  0  0  0
 22 27  1  0  0  0  0
 22 21  1  6  0  0  0
 23 24  1  0  0  0  0
 23 28  1  1  0  0  0
 24 25  1  0  0  0  0
 25 26  1  0  0  0  0
 26 27  1  0  0  0  0
M  END
>  <DATABASE_ID>
DB16838

>  <DATABASE_NAME>
drugbank

>  <SMILES>
CNC(=O)C1=NC=CC(OC2=CC=C3N=C(N[C@@H]4CCCC[C@H]4O)SC3=C2)=C1

>  <INCHI_IDENTIFIER>
InChI=1S/C20H22N4O3S/c1-21-19(26)16-10-13(8-9-22-16)27-12-6-7-15-18(11-12)28-20(24-15)23-14-4-2-3-5-17(14)25/h6-11,14,17,25H,2-5H2,1H3,(H,21,26)(H,23,24)/t14-,17-/m1/s1

>  <INCHI_KEY>
ADZBMFGQQWPHMJ-RHSMWYFYSA-N

>  <FORMULA>
C20H22N4O3S

>  <MOLECULAR_WEIGHT>
398.48

>  <EXACT_MASS>
398.141261758

>  <JCHEM_ACCEPTOR_COUNT>
5

>  <JCHEM_ATOM_COUNT>
50

>  <JCHEM_AVERAGE_NEUTRAL_MICROSPECIES_CHARGE>
2.0006793663969793

>  <JCHEM_AVERAGE_POLARIZABILITY>
42.552293303664015

>  <JCHEM_BIOAVAILABILITY>
1

>  <JCHEM_DONOR_COUNT>
3

>  <JCHEM_FORMAL_CHARGE>
0

>  <JCHEM_GHOSE_FILTER>
1

>  <JCHEM_IUPAC>
4-[(2-{[(1R,2R)-2-hydroxycyclohexyl]amino}-1,3-benzothiazol-6-yl)oxy]-N-methylpyridine-2-carboxamide

>  <ALOGPS_LOGP>
3.39

>  <JCHEM_LOGP>
2.7376482640000006

>  <ALOGPS_LOGS>
-4.78

>  <JCHEM_MDDR_LIKE_RULE>
0

>  <JCHEM_NEUTRAL_CHARGE>
0

>  <JCHEM_NUMBER_OF_RINGS>
4

>  <JCHEM_PHYSIOLOGICAL_CHARGE>
0

>  <JCHEM_PKA>
14.242031370012281

>  <JCHEM_PKA_STRONGEST_ACIDIC>
13.682485231564383

>  <JCHEM_PKA_STRONGEST_BASIC>
3.610712991940256

>  <JCHEM_POLAR_SURFACE_AREA>
96.37

>  <JCHEM_REFRACTIVITY>
106.85849999999998

>  <JCHEM_ROTATABLE_BOND_COUNT>
5

>  <JCHEM_RULE_OF_FIVE>
1

>  <ALOGPS_SOLUBILITY>
6.67e-03 g/l

>  <JCHEM_TRADITIONAL_IUPAC>
N-{3-carbamoyl-5,5,7,7-tetramethyl-4H-thieno[2,3-c]pyran-2-yl}-1H-pyrazole-3-carboxamide

>  <JCHEM_VEBER_RULE>
0

>  <DRUGBANK_ID>
DB16838

>  <DRUG_GROUPS>
investigational

>  <GENERIC_NAME>
BLZ-945

>  <SYNONYMS>
Sotuletinib

$$$$

 OpenBabel05042401512D

 36 39  0  0  0  0  0  0  0  0999 V2000
    0.7842   -0.3539    0.0000 C   0  0  0  0  0  0  0  0  0  0  0  0
   -0.0003   -0.0990    0.0000 C   0  0  0  0  0  0  0  0  0  0  0  0
   -0.6678   -0.5839    0.0000 C   0  0  0  0  0  0  0  0  0  0  0  0
   -1.3352   -0.0990    0.0000 C   0  0  0  0  0  0  0  0  0  0  0  0
   -1.0803    0.6856    0.0000 N   0  0  0  0  0  0  0  0  0  0  0  0
   -0.2553    0.6856    0.0000 N   0  0  0  0  0  0  0  0  0  0  0  0
    0.2295    1.3530    0.0000 C   0  0  0  0  0  0  0  0  0  0  0  0
   -0.1059    2.1067    0.0000 C   0  0  0  0  0  0  0  0  0  0  0  0
   -0.9264    2.1929    0.0000 C   0  0  0  0  0  0  0  0  0  0  0  0
   -1.2620    2.9466    0.0000 C   0  0  0  0  0  0  0  0  0  0  0  0
   -0.7770    3.6140    0.0000 C   0  0  0  0  0  0  0  0  0  0  0  0
    0.0433    3.5278    0.0000 C   0  0  0  0  0  0  0  0  0  0  0  0
    0.3789    2.7741    0.0000 C   0  0  0  0  0  0  0  0  0  0  0  0
   -1.1126    4.3677    0.0000 C   0  0  0  0  0  0  0  0  0  0  0  0
   -1.4482    5.1214    0.0000 N   0  0  0  0  0  0  0  0  0  0  0  0
   -2.1198   -0.3539    0.0000 C   0  0  0  0  0  0  0  0  0  0  0  0
   -2.9045   -0.6088    0.0000 F   0  0  0  0  0  0  0  0  0  0  0  0
   -2.3748    0.4306    0.0000 F   0  0  0  0  0  0  0  0  0  0  0  0
   -1.8649   -1.1385    0.0000 F   0  0  0  0  0  0  0  0  0  0  0  0
   -0.6678   -1.4089    0.0000 N   0  0  0  0  0  0  0  0  0  0  0  0
    0.0466   -1.8214    0.0000 C   0  0  0  0  0  0  0  0  0  0  0  0
    0.7611   -1.4089    0.0000 O   0  0  0  0  0  0  0  0  0  0  0  0
    0.0466   -2.6464    0.0000 C   0  0  0  0  0  0  0  0  0  0  0  0
   -0.6678   -3.0589    0.0000 C   0  0  0  0  0  0  0  0  0  0  0  0
   -0.6678   -3.8839    0.0000 C   0  0  0  0  0  0  0  0  0  0  0  0
    0.0466   -4.2964    0.0000 N   0  0  0  0  0  0  0  0  0  0  0  0
    0.7611   -3.8839    0.0000 C   0  0  0  0  0  0  0  0  0  0  0  0
    0.7611   -3.0589    0.0000 C   0  0  0  0  0  0  0  0  0  0  0  0
    1.4755   -2.6464    0.0000 C   0  0  0  0  0  0  0  0  0  0  0  0
    2.1900   -3.0589    0.0000 C   0  0  0  0  0  0  0  0  0  0  0  0
    2.1900   -3.8839    0.0000 C   0  0  0  0  0  0  0  0  0  0  0  0
    1.4755   -4.2964    0.0000 C   0  0  0  0  0  0  0  0  0  0  0  0
    2.9045   -4.2964    0.0000 F   0  0  0  0  0  0  0  0  0  0  0  0
   -1.3823   -4.2964    0.0000 C   0  0  0  0  0  0  0  0  0  0  0  0
   -1.3823   -5.1214    0.0000 O   0  0  0  0  0  0  0  0  0  0  0  0
   -2.0967   -3.8839    0.0000 N   0  0  0  0  0  0  0  0  0  0  0  0
  1  2  1  0  0  0  0
  2  3  2  0  0  0  0
  2  6  1  0  0  0  0
  3  4  1  0  0  0  0
  3 20  1  0  0  0  0
  4  5  2  0  0  0  0
  4 16  1  0  0  0  0
  5  6  1  0  0  0  0
  6  7  1  0  0  0  0
  7  8  1  0  0  0  0
  8  9  2  0  0  0  0
  8 13  1  0  0  0  0
  9 10  1  0  0  0  0
 10 11  2  0  0  0  0
 11 12  1  0  0  0  0
 11 14  1  0  0  0  0
 12 13  2  0  0  0  0
 14 15  3  0  0  0  0
 16 17  1  0  0  0  0
 16 18  1  0  0  0  0
 16 19  1  0  0  0  0
 20 21  1  0  0  0  0
 21 22  2  0  0  0  0
 21 23  1  0  0  0  0
 23 24  2  0  0  0  0
 23 28  1  0  0  0  0
 24 25  1  0  0  0  0
 25 26  2  0  0  0  0
 25 34  1  0  0  0  0
 26 27  1  0  0  0  0
 27 28  2  0  0  0  0
 27 32  1  0  0  0  0
 28 29  1  0  0  0  0
 29 30  2  0  0  0  0
 30 31  1  0  0  0  0
 31 32  2  0  0  0  0
 31 33  1  0  0  0  0
 34 35  2  0  0  0  0
 34 36  1  0  0  0  0
M  END
>  <DATABASE_ID>
DB16758

>  <DATABASE_NAME>
drugbank

>  <SMILES>
CC1=C(NC(=O)C2=CC(=NC3=C2C=CC(F)=C3)C(N)=O)C(=NN1CC1=CC=C(C=C1)C#N)C(F)(F)F

>  <INCHI_IDENTIFIER>
InChI=1S/C24H16F4N6O2/c1-12-20(21(24(26,27)28)33-34(12)11-14-4-2-13(10-29)3-5-14)32-23(36)17-9-19(22(30)35)31-18-8-15(25)6-7-16(17)18/h2-9H,11H2,1H3,(H2,30,35)(H,32,36)

>  <INCHI_KEY>
BKLJDIJJOOQUFG-UHFFFAOYSA-N

>  <FORMULA>
C24H16F4N6O2

>  <MOLECULAR_WEIGHT>
496.426

>  <EXACT_MASS>
496.127086431

>  <JCHEM_ACCEPTOR_COUNT>
5

>  <JCHEM_ATOM_COUNT>
52

>  <JCHEM_AVERAGE_NEUTRAL_MICROSPECIES_CHARGE>
0.3751192600596915

>  <JCHEM_AVERAGE_POLARIZABILITY>
44.075288620475796

>  <JCHEM_BIOAVAILABILITY>
1

>  <JCHEM_DONOR_COUNT>
2

>  <JCHEM_FORMAL_CHARGE>
0

>  <JCHEM_GHOSE_FILTER>
0

>  <JCHEM_IUPAC>
N4-{1-[(4-cyanophenyl)methyl]-5-methyl-3-(trifluoromethyl)-1H-pyrazol-4-yl}-7-fluoroquinoline-2,4-dicarboxamide

>  <ALOGPS_LOGP>
3.67

>  <JCHEM_LOGP>
4.073667327000001

>  <ALOGPS_LOGS>
-5.19

>  <JCHEM_MDDR_LIKE_RULE>
1

>  <JCHEM_NEUTRAL_CHARGE>
0

>  <JCHEM_NUMBER_OF_RINGS>
4

>  <JCHEM_PHYSIOLOGICAL_CHARGE>
0

>  <JCHEM_PKA>
14.54568772108823

>  <JCHEM_PKA_STRONGEST_ACIDIC>
13.465811354634361

>  <JCHEM_PKA_STRONGEST_BASIC>
-0.2428427030438691

>  <JCHEM_POLAR_SURFACE_AREA>
126.69000000000001

>  <JCHEM_REFRACTIVITY>
134.42460000000003

>  <JCHEM_ROTATABLE_BOND_COUNT>
6

>  <JCHEM_RULE_OF_FIVE>
1

>  <ALOGPS_SOLUBILITY>
3.19e-03 g/l

>  <JCHEM_TRADITIONAL_IUPAC>
N4-{1-[(4-cyanophenyl)methyl]-5-methyl-3-(trifluoromethyl)pyrazol-4-yl}-7-fluoroquinoline-2,4-dicarboxamide

>  <JCHEM_VEBER_RULE>
0

>  <DRUGBANK_ID>
DB16758

>  <DRUG_GROUPS>
experimental

>  <GENERIC_NAME>
BAY-876

>  <SYNONYMS>
BAY 876; BAY876

$$$$

 OpenBabel05042401512D

 28 31  0  0  0  0  0  0  0  0999 V2000
    5.4472    1.5084    0.0000 O   0  0  0  0  0  0  0  0  0  0  0  0
    5.4472    0.6834    0.0000 C   0  0  0  0  0  0  0  0  0  0  0  0
    4.7327    0.2709    0.0000 O   0  0  0  0  0  0  0  0  0  0  0  0
    6.1616    0.2709    0.0000 C   0  0  0  0  0  0  0  0  0  0  0  0
    6.1616   -0.5541    0.0000 C   0  0  0  0  0  0  0  0  0  0  0  0
    6.8761   -0.9666    0.0000 N   0  0  0  0  0  0  0  0  0  0  0  0
    6.8761   -1.7916    0.0000 N   0  0  0  0  0  0  0  0  0  0  0  0
    7.5906   -2.2041    0.0000 C   0  0  0  0  0  0  0  0  0  0  0  0
    7.5906   -3.0291    0.0000 C   0  0  0  0  0  0  0  0  0  0  0  0
    8.2580   -3.5140    0.0000 N   0  0  0  0  0  0  0  0  0  0  0  0
    8.0031   -4.2986    0.0000 C   0  0  0  0  0  0  0  0  0  0  0  0
    8.4156   -5.0131    0.0000 C   0  0  0  0  0  0  0  0  0  0  0  0
    8.0031   -5.7276    0.0000 C   0  0  0  0  0  0  0  0  0  0  0  0
    7.1781   -5.7276    0.0000 C   0  0  0  0  0  0  0  0  0  0  0  0
    6.7656   -5.0131    0.0000 C   0  0  0  0  0  0  0  0  0  0  0  0
    7.1781   -4.2986    0.0000 C   0  0  0  0  0  0  0  0  0  0  0  0
    6.9232   -3.5140    0.0000 S   0  0  0  0  0  0  0  0  0  0  0  0
    8.4156   -6.4420    0.0000 C   0  0  0  0  0  0  0  0  0  0  0  0
    8.8281   -7.1565    0.0000 F   0  0  0  0  0  0  0  0  0  0  0  0
    7.7011   -6.8545    0.0000 F   0  0  0  0  0  0  0  0  0  0  0  0
    9.1301   -6.0295    0.0000 F   0  0  0  0  0  0  0  0  0  0  0  0
    6.1616   -2.2041    0.0000 C   0  0  0  0  0  0  0  0  0  0  0  0
    6.1616   -3.0291    0.0000 O   0  0  0  0  0  0  0  0  0  0  0  0
    5.4472   -1.7916    0.0000 C   0  0  0  0  0  0  0  0  0  0  0  0
    4.6626   -2.0465    0.0000 C   0  0  0  0  0  0  0  0  0  0  0  0
    4.1776   -1.3791    0.0000 S   0  0  0  0  0  0  0  0  0  0  0  0
    4.6626   -0.7116    0.0000 C   0  0  0  0  0  0  0  0  0  0  0  0
    5.4472   -0.9666    0.0000 C   0  0  0  0  0  0  0  0  0  0  0  0
  1  2  1  0  0  0  0
  2  3  2  0  0  0  0
  2  4  1  0  0  0  0
  4  5  1  0  0  0  0
  5  6  2  0  0  0  0
  5 28  1  0  0  0  0
  6  7  1  0  0  0  0
  7  8  1  0  0  0  0
  7 22  1  0  0  0  0
  8  9  1  0  0  0  0
  9 10  2  0  0  0  0
  9 17  1  0  0  0  0
 10 11  1  0  0  0  0
 11 12  2  0  0  0  0
 11 16  1  0  0  0  0
 12 13  1  0  0  0  0
 13 14  2  0  0  0  0
 13 18  1  0  0  0  0
 14 15  1  0  0  0  0
 15 16  2  0  0  0  0
 16 17  1  0  0  0  0
 18 19  1  0  0  0  0
 18 20  1  0  0  0  0
 18 21  1  0  0  0  0
 22 23  2  0  0  0  0
 22 24  1  0  0  0  0
 24 25  2  0  0  0  0
 24 28  1  0  0  0  0
 25 26  1  0  0  0  0
 26 27  1  0  0  0  0
 27 28  2  0  0  0  0
M  END
>  <DATABASE_ID>
DB16707

>  <DATABASE_NAME>
drugbank

>  <SMILES>
OC(=O)CC1=NN(CC2=NC3=CC(=CC=C3S2)C(F)(F)F)C(=O)C2=CSC=C12

>  <INCHI_IDENTIFIER>
InChI=1S/C17H10F3N3O3S2/c18-17(19,20)8-1-2-13-12(3-8)21-14(28-13)5-23-16(26)10-7-27-6-9(10)11(22-23)4-15(24)25/h1-3,6-7H,4-5H2,(H,24,25)

>  <INCHI_KEY>
ORQGHAJIWGGFJK-UHFFFAOYSA-N

>  <FORMULA>
C17H10F3N3O3S2

>  <MOLECULAR_WEIGHT>
425.4

>  <EXACT_MASS>
425.011568031

>  <JCHEM_ACCEPTOR_COUNT>
5

>  <JCHEM_ATOM_COUNT>
38

>  <JCHEM_AVERAGE_NEUTRAL_MICROSPECIES_CHARGE>
0.9946283779801155

>  <JCHEM_AVERAGE_POLARIZABILITY>
37.138024943418905

>  <JCHEM_BIOAVAILABILITY>
1

>  <JCHEM_DONOR_COUNT>
1

>  <JCHEM_FORMAL_CHARGE>
0

>  <JCHEM_GHOSE_FILTER>
1

>  <JCHEM_IUPAC>
2-(4-oxo-3-{[5-(trifluoromethyl)-1,3-benzothiazol-2-yl]methyl}-3H,4H-thieno[3,4-d]pyridazin-1-yl)acetic acid

>  <ALOGPS_LOGP>
3.17

>  <JCHEM_LOGP>
3.3607381867906923

>  <ALOGPS_LOGS>
-5.31

>  <JCHEM_MDDR_LIKE_RULE>
0

>  <JCHEM_NEUTRAL_CHARGE>
-1

>  <JCHEM_NUMBER_OF_RINGS>
4

>  <JCHEM_PHYSIOLOGICAL_CHARGE>
-1

>  <JCHEM_PKA_STRONGEST_ACIDIC>
3.6878339927734505

>  <JCHEM_PKA_STRONGEST_BASIC>
2.285207508145869

>  <JCHEM_POLAR_SURFACE_AREA>
82.85999999999999

>  <JCHEM_REFRACTIVITY>
95.3269

>  <JCHEM_ROTATABLE_BOND_COUNT>
5

>  <JCHEM_RULE_OF_FIVE>
1

>  <ALOGPS_SOLUBILITY>
2.10e-03 g/l

>  <JCHEM_TRADITIONAL_IUPAC>
(4-oxo-3-{[5-(trifluoromethyl)-1,3-benzothiazol-2-yl]methyl}thieno[3,4-d]pyridazin-1-yl)acetic acid

>  <JCHEM_VEBER_RULE>
0

>  <DRUGBANK_ID>
DB16707

>  <DRUG_GROUPS>
investigational

>  <GENERIC_NAME>
Gavorestat

>  <SYNONYMS>
2-(4-Oxo-3-((5-(Trifluoromethyl)Benzo[D]Thiazol-2-Yl)Methyl)-3,4-Dihydrothieno[3,4-D]Pyridazin-1-Yl)Acetic Acid; AT-007; AT007; Gavorestat

$$$$

 OpenBabel05042401512D

 61 61  0  0  1  0  0  0  0  0999 V2000
  -16.4328   -2.8875    0.0000 C   0  0  0  0  0  0  0  0  0  0  0  0
  -15.7184   -2.4750    0.0000 C   0  0  0  0  0  0  0  0  0  0  0  0
  -15.0039   -2.8875    0.0000 C   0  0  0  0  0  0  0  0  0  0  0  0
  -14.2894   -2.4750    0.0000 C   0  0  0  0  0  0  0  0  0  0  0  0
  -13.5749   -2.8875    0.0000 C   0  0  0  0  0  0  0  0  0  0  0  0
  -12.8605   -2.4750    0.0000 C   0  0  0  0  0  0  0  0  0  0  0  0
  -12.1460   -2.8875    0.0000 C   0  0  0  0  0  0  0  0  0  0  0  0
  -11.4315   -2.4750    0.0000 C   0  0  0  0  0  0  0  0  0  0  0  0
  -10.7171   -2.8875    0.0000 C   0  0  0  0  0  0  0  0  0  0  0  0
  -10.0026   -2.4750    0.0000 C   0  0  0  0  0  0  0  0  0  0  0  0
   -9.2881   -2.8875    0.0000 C   0  0  0  0  0  0  0  0  0  0  0  0
   -8.5737   -2.4750    0.0000 C   0  0  0  0  0  0  0  0  0  0  0  0
   -7.8592   -2.8875    0.0000 C   0  0  0  0  0  0  0  0  0  0  0  0
   -7.1447   -2.4750    0.0000 C   0  0  0  0  0  0  0  0  0  0  0  0
   -6.4302   -2.8875    0.0000 C   0  0  0  0  0  0  0  0  0  0  0  0
   -5.7158   -2.4750    0.0000 C   0  0  0  0  0  0  0  0  0  0  0  0
   -5.0013   -2.8875    0.0000 C   0  0  0  0  0  0  0  0  0  0  0  0
   -4.2868   -2.4750    0.0000 C   0  0  0  0  0  0  0  0  0  0  0  0
   -3.5724   -2.8875    0.0000 C   0  0  0  0  0  0  0  0  0  0  0  0
   -2.8579   -2.4750    0.0000 C   0  0  0  0  0  0  0  0  0  0  0  0
   -2.1434   -2.8875    0.0000 C   0  0  0  0  0  0  0  0  0  0  0  0
   -1.4289   -2.4750    0.0000 C   0  0  0  0  0  0  0  0  0  0  0  0
   -0.7145   -2.8875    0.0000 C   0  0  0  0  0  0  0  0  0  0  0  0
    0.0000   -2.4750    0.0000 C   0  0  0  0  0  0  0  0  0  0  0  0
    0.0000   -1.6500    0.0000 O   0  0  0  0  0  0  0  0  0  0  0  0
    0.7145   -2.8875    0.0000 N   0  0  0  0  0  0  0  0  0  0  0  0
    1.4289   -2.4750    0.0000 C   0  0  1  0  0  0  0  0  0  0  0  0
    1.4289   -1.6500    0.0000 C   0  0  0  0  0  0  0  0  0  0  0  0
    0.7145   -1.2375    0.0000 O   0  0  0  0  0  0  0  0  0  0  0  0
    0.7145   -0.4125    0.0000 C   0  0  1  0  0  0  0  0  0  0  0  0
    0.0000   -0.0000    0.0000 O   0  0  0  0  0  0  0  0  0  0  0  0
    0.0000    0.8250    0.0000 C   0  0  2  0  0  0  0  0  0  0  0  0
   -0.7145    1.2375    0.0000 C   0  0  0  0  0  0  0  0  0  0  0  0
   -0.7145    2.0625    0.0000 N   0  0  0  0  0  0  0  0  0  0  0  0
   -1.4289    2.4750    0.0000 C   0  0  0  0  0  0  0  0  0  0  0  0
   -2.1434    2.0625    0.0000 C   0  0  0  0  0  0  0  0  0  0  0  0
   -1.4289    3.3000    0.0000 O   0  0  0  0  0  0  0  0  0  0  0  0
    0.7145    1.2375    0.0000 C   0  0  2  0  0  0  0  0  0  0  0  0
    0.7145    2.0625    0.0000 O   0  0  0  0  0  0  0  0  0  0  0  0
    1.4289    0.8250    0.0000 C   0  0  2  0  0  0  0  0  0  0  0  0
    2.1434    1.2375    0.0000 O   0  0  0  0  0  0  0  0  0  0  0  0
    1.4289   -0.0000    0.0000 C   0  0  1  0  0  0  0  0  0  0  0  0
    2.1434   -0.4125    0.0000 O   0  0  0  0  0  0  0  0  0  0  0  0
    2.1434   -2.8875    0.0000 C   0  0  2  0  0  0  0  0  0  0  0  0
    2.1434   -3.7125    0.0000 O   0  0  0  0  0  0  0  0  0  0  0  0
    2.8579   -2.4750    0.0000 C   0  0  2  0  0  0  0  0  0  0  0  0
    2.8579   -1.6500    0.0000 O   0  0  0  0  0  0  0  0  0  0  0  0
    3.5724   -2.8875    0.0000 C   0  0  0  0  0  0  0  0  0  0  0  0
    4.2868   -2.4750    0.0000 C   0  0  0  0  0  0  0  0  0  0  0  0
    5.0013   -2.8875    0.0000 C   0  0  0  0  0  0  0  0  0  0  0  0
    5.7158   -2.4750    0.0000 C   0  0  0  0  0  0  0  0  0  0  0  0
    6.4302   -2.8875    0.0000 C   0  0  0  0  0  0  0  0  0  0  0  0
    7.1447   -2.4750    0.0000 C   0  0  0  0  0  0  0  0  0  0  0  0
    7.8592   -2.8875    0.0000 C   0  0  0  0  0  0  0  0  0  0  0  0
    8.5737   -2.4750    0.0000 C   0  0  0  0  0  0  0  0  0  0  0  0
    9.2881   -2.8875    0.0000 C   0  0  0  0  0  0  0  0  0  0  0  0
   10.0026   -2.4750    0.0000 C   0  0  0  0  0  0  0  0  0  0  0  0
   10.7171   -2.8875    0.0000 C   0  0  0  0  0  0  0  0  0  0  0  0
   11.4315   -2.4750    0.0000 C   0  0  0  0  0  0  0  0  0  0  0  0
   12.1460   -2.8875    0.0000 C   0  0  0  0  0  0  0  0  0  0  0  0
   12.8605   -2.4750    0.0000 C   0  0  0  0  0  0  0  0  0  0  0  0
  1  2  1  0  0  0  0
  2  3  1  0  0  0  0
  3  4  1  0  0  0  0
  4  5  1  0  0  0  0
  5  6  1  0  0  0  0
  6  7  1  0  0  0  0
  7  8  1  0  0  0  0
  8  9  1  0  0  0  0
  9 10  1  0  0  0  0
 10 11  1  0  0  0  0
 11 12  1  0  0  0  0
 12 13  1  0  0  0  0
 13 14  1  0  0  0  0
 14 15  1  0  0  0  0
 15 16  1  0  0  0  0
 16 17  1  0  0  0  0
 17 18  1  0  0  0  0
 18 19  1  0  0  0  0
 19 20  1  0  0  0  0
 20 21  1  0  0  0  0
 21 22  1  0  0  0  0
 22 23  1  0  0  0  0
 23 24  1  0  0  0  0
 24 25  2  0  0  0  0
 24 26  1  0  0  0  0
 27 26  1  1  0  0  0
 27 28  1  0  0  0  0
 28 29  1  0  0  0  0
 30 29  1  1  0  0  0
 30 31  1  0  0  0  0
 32 31  1  0  0  0  0
 32 33  1  6  0  0  0
 33 34  1  0  0  0  0
 34 35  1  0  0  0  0
 35 36  1  0  0  0  0
 35 37  2  0  0  0  0
 38 32  1  0  0  0  0
 38 39  1  6  0  0  0
 38 40  1  0  0  0  0
 40 41  1  6  0  0  0
 40 42  1  0  0  0  0
 42 30  1  0  0  0  0
 42 43  1  1  0  0  0
 44 27  1  0  0  0  0
 44 45  1  1  0  0  0
 44 46  1  0  0  0  0
 46 47  1  6  0  0  0
 46 48  1  0  0  0  0
 48 49  1  0  0  0  0
 49 50  1  0  0  0  0
 50 51  1  0  0  0  0
 51 52  1  0  0  0  0
 52 53  1  0  0  0  0
 53 54  1  0  0  0  0
 54 55  1  0  0  0  0
 55 56  1  0  0  0  0
 56 57  1  0  0  0  0
 57 58  1  0  0  0  0
 58 59  1  0  0  0  0
 59 60  1  0  0  0  0
 60 61  1  0  0  0  0
M  END
>  <DATABASE_ID>
DB16339

>  <DATABASE_NAME>
drugbank

>  <SMILES>
CCCCCCCCCCCCCCCCCCCCCCCC(=O)N[C@@H](CO[C@H]1O[C@H](CNC(C)=O)[C@H](O)[C@H](O)[C@H]1O)[C@H](O)[C@H](O)CCCCCCCCCCCCCC

>  <INCHI_IDENTIFIER>
InChI=1S/C50H98N2O9/c1-4-6-8-10-12-14-16-18-19-20-21-22-23-24-25-26-28-30-32-34-36-38-45(55)52-42(40-60-50-49(59)48(58)47(57)44(61-50)39-51-41(3)53)46(56)43(54)37-35-33-31-29-27-17-15-13-11-9-7-5-2/h42-44,46-50,54,56-59H,4-40H2,1-3H3,(H,51,53)(H,52,55)/t42-,43+,44+,46-,47-,48-,49+,50-/m0/s1

>  <INCHI_KEY>
VITDDUXZOHEQMU-BYSUZVQFSA-N

>  <FORMULA>
C50H98N2O9

>  <MOLECULAR_WEIGHT>
871.339

>  <EXACT_MASS>
870.727232744

>  <JCHEM_ACCEPTOR_COUNT>
9

>  <JCHEM_ATOM_COUNT>
159

>  <JCHEM_AVERAGE_NEUTRAL_MICROSPECIES_CHARGE>
-9.062392112929839e-06

>  <JCHEM_AVERAGE_POLARIZABILITY>
111.73462978897949

>  <JCHEM_BIOAVAILABILITY>
0

>  <JCHEM_DONOR_COUNT>
7

>  <JCHEM_FORMAL_CHARGE>
0

>  <JCHEM_GHOSE_FILTER>
0

>  <JCHEM_IUPAC>
N-[(2S,3S,4R)-1-{[(2S,3R,4S,5R,6R)-6-(acetamidomethyl)-3,4,5-trihydroxyoxan-2-yl]oxy}-3,4-dihydroxyoctadecan-2-yl]tetracosanamide

>  <ALOGPS_LOGP>
8.37

>  <JCHEM_LOGP>
11.494144214000002

>  <ALOGPS_LOGS>
-6.24

>  <JCHEM_MDDR_LIKE_RULE>
0

>  <JCHEM_NEUTRAL_CHARGE>
0

>  <JCHEM_NUMBER_OF_RINGS>
1

>  <JCHEM_PHYSIOLOGICAL_CHARGE>
0

>  <JCHEM_PKA>
12.917315791123846

>  <JCHEM_PKA_STRONGEST_ACIDIC>
12.163405665305698

>  <JCHEM_PKA_STRONGEST_BASIC>
-1.0451961297945798

>  <JCHEM_POLAR_SURFACE_AREA>
177.80999999999997

>  <JCHEM_REFRACTIVITY>
246.4972

>  <JCHEM_ROTATABLE_BOND_COUNT>
43

>  <JCHEM_RULE_OF_FIVE>
0

>  <ALOGPS_SOLUBILITY>
4.97e-04 g/l

>  <JCHEM_TRADITIONAL_IUPAC>
revaprazan

>  <JCHEM_VEBER_RULE>
0

>  <DRUGBANK_ID>
DB16339

>  <DRUG_GROUPS>
investigational

>  <GENERIC_NAME>
ABX-196

$$$$

 OpenBabel05042401512D

 25 28  0  0  0  0  0  0  0  0999 V2000
   -5.0013   -3.7125    0.0000 C   0  0  0  0  0  0  0  0  0  0  0  0
   -4.2868   -4.1250    0.0000 C   0  0  0  0  0  0  0  0  0  0  0  0
   -3.5724   -3.7125    0.0000 C   0  0  0  0  0  0  0  0  0  0  0  0
   -2.8579   -4.1250    0.0000 C   0  0  0  0  0  0  0  0  0  0  0  0
   -2.8579   -4.9500    0.0000 C   0  0  0  0  0  0  0  0  0  0  0  0
   -3.5724   -5.3625    0.0000 C   0  0  0  0  0  0  0  0  0  0  0  0
   -4.2868   -4.9500    0.0000 C   0  0  0  0  0  0  0  0  0  0  0  0
   -2.1434   -3.7125    0.0000 N   0  0  0  0  0  0  0  0  0  0  0  0
   -2.1434   -2.8875    0.0000 C   0  0  0  0  0  0  0  0  0  0  0  0
   -1.4289   -2.4750    0.0000 C   0  0  0  0  0  0  0  0  0  0  0  0
   -0.7145   -2.8875    0.0000 N   0  0  0  0  0  0  0  0  0  0  0  0
    0.0000   -2.4750    0.0000 C   0  0  0  0  0  0  0  0  0  0  0  0
    0.0000   -1.6500    0.0000 C   0  0  0  0  0  0  0  0  0  0  0  0
    0.7145   -1.2375    0.0000 C   0  0  0  0  0  0  0  0  0  0  0  0
    0.7145   -0.4125    0.0000 C   0  0  0  0  0  0  0  0  0  0  0  0
    1.4289    0.0000    0.0000 C   0  0  0  0  0  0  0  0  0  0  0  0
    2.1434   -0.4125    0.0000 C   0  0  0  0  0  0  0  0  0  0  0  0
    2.8579    0.0000    0.0000 C   0  0  0  0  0  0  0  0  0  0  0  0
    3.5724   -0.4125    0.0000 C   0  0  0  0  0  0  0  0  0  0  0  0
    3.5724   -1.2375    0.0000 C   0  0  0  0  0  0  0  0  0  0  0  0
    2.8579   -1.6500    0.0000 C   0  0  0  0  0  0  0  0  0  0  0  0
    2.1434   -1.2375    0.0000 C   0  0  0  0  0  0  0  0  0  0  0  0
    1.4289   -1.6500    0.0000 N   0  0  0  0  0  0  0  0  0  0  0  0
   -0.7145   -3.7125    0.0000 C   0  0  0  0  0  0  0  0  0  0  0  0
   -1.4289   -4.1250    0.0000 C   0  0  0  0  0  0  0  0  0  0  0  0
  1  2  1  0  0  0  0
  2  3  2  0  0  0  0
  2  7  1  0  0  0  0
  3  4  1  0  0  0  0
  4  5  2  0  0  0  0
  4  8  1  0  0  0  0
  5  6  1  0  0  0  0
  6  7  2  0  0  0  0
  8  9  1  0  0  0  0
  8 25  1  0  0  0  0
  9 10  1  0  0  0  0
 10 11  1  0  0  0  0
 11 12  1  0  0  0  0
 11 24  1  0  0  0  0
 12 13  1  0  0  0  0
 13 14  1  0  0  0  0
 14 15  2  0  0  0  0
 14 23  1  0  0  0  0
 15 16  1  0  0  0  0
 16 17  2  0  0  0  0
 17 18  1  0  0  0  0
 17 22  1  0  0  0  0
 18 19  2  0  0  0  0
 19 20  1  0  0  0  0
 20 21  2  0  0  0  0
 21 22  1  0  0  0  0
 22 23  2  0  0  0  0
 24 25  1  0  0  0  0
M  END
>  <DATABASE_ID>
DB16122

>  <DATABASE_NAME>
drugbank

>  <SMILES>
CC1=CC(=CC=C1)N1CCN(CCC2=CC=C3C=CC=CC3=N2)CC1

>  <INCHI_IDENTIFIER>
InChI=1S/C22H25N3/c1-18-5-4-7-21(17-18)25-15-13-24(14-16-25)12-11-20-10-9-19-6-2-3-8-22(19)23-20/h2-10,17H,11-16H2,1H3

>  <INCHI_KEY>
UJNWGFBJUHIJKK-UHFFFAOYSA-N

>  <FORMULA>
C22H25N3

>  <MOLECULAR_WEIGHT>
331.463

>  <EXACT_MASS>
331.204847817

>  <JCHEM_ACCEPTOR_COUNT>
3

>  <JCHEM_ATOM_COUNT>
50

>  <JCHEM_AVERAGE_NEUTRAL_MICROSPECIES_CHARGE>
0.933814459349184

>  <JCHEM_AVERAGE_POLARIZABILITY>
39.672800794902244

>  <JCHEM_BIOAVAILABILITY>
1

>  <JCHEM_DONOR_COUNT>
0

>  <JCHEM_FORMAL_CHARGE>
0

>  <JCHEM_GHOSE_FILTER>
1

>  <JCHEM_IUPAC>
2-{2-[4-(3-methylphenyl)piperazin-1-yl]ethyl}quinoline

>  <ALOGPS_LOGP>
4.68

>  <JCHEM_LOGP>
4.642443042333334

>  <ALOGPS_LOGS>
-3.49

>  <JCHEM_MDDR_LIKE_RULE>
0

>  <JCHEM_NEUTRAL_CHARGE>
1

>  <JCHEM_NUMBER_OF_RINGS>
4

>  <JCHEM_PHYSIOLOGICAL_CHARGE>
1

>  <JCHEM_PKA_STRONGEST_BASIC>
8.148345159695255

>  <JCHEM_POLAR_SURFACE_AREA>
19.37

>  <JCHEM_REFRACTIVITY>
104.28900000000002

>  <JCHEM_ROTATABLE_BOND_COUNT>
4

>  <JCHEM_RULE_OF_FIVE>
1

>  <ALOGPS_SOLUBILITY>
1.06e-01 g/l

>  <JCHEM_TRADITIONAL_IUPAC>
5-({4-[2-(3-methoxyphenyl)-2-oxoethoxy]phenyl}methyl)-1,3-thiazolidine-2,4-dione

>  <JCHEM_VEBER_RULE>
1

>  <DRUGBANK_ID>
DB16122

>  <DRUG_GROUPS>
investigational

>  <GENERIC_NAME>
Centhaquine

>  <SYNONYMS>
Centhaquine; Compound-7173

$$$$

 OpenBabel05042401512D

 21 20  0  0  1  0  0  0  0  0999 V2000
    4.1539   -0.9908    0.0000 C   0  0  0  0  0  0  0  0  0  0  0  0
    3.4394    0.2467    0.0000 N   0  0  0  0  0  0  0  0  0  0  0  0
    3.4394   -0.5783    0.0000 C   0  0  1  0  0  0  0  0  0  0  0  0
    2.7250   -0.9908    0.0000 C   0  0  0  0  0  0  0  0  0  0  0  0
    2.0105   -0.5783    0.0000 C   0  0  0  0  0  0  0  0  0  0  0  0
    1.2960   -0.9908    0.0000 C   0  0  0  0  0  0  0  0  0  0  0  0
    0.5815   -0.5783    0.0000 N   0  0  0  0  0  0  0  0  0  0  0  0
   -0.1329   -0.9908    0.0000 C   0  0  0  0  0  0  0  0  0  0  0  0
   -0.1329   -1.8158    0.0000 N   0  0  0  0  0  0  0  0  0  0  0  0
   -0.8474   -0.5783    0.0000 N   0  0  0  0  0  0  0  0  0  0  0  0
    4.1539   -1.8158    0.0000 O   0  0  0  0  0  0  0  0  0  0  0  0
    4.8684   -0.5783    0.0000 O   0  0  0  0  0  0  0  0  0  0  0  0
   -2.1063    0.9183    0.0000 C   0  0  0  0  0  0  0  0  0  0  0  0
   -3.4163    1.5858    0.0000 N   0  0  0  0  0  0  0  0  0  0  0  0
   -2.9313    0.9183    0.0000 C   0  0  1  0  0  0  0  0  0  0  0  0
   -3.4163    0.2509    0.0000 C   0  0  0  0  0  0  0  0  0  0  0  0
   -4.2009    0.5058    0.0000 C   0  0  0  0  0  0  0  0  0  0  0  0
   -4.2009    1.3308    0.0000 C   0  0  0  0  0  0  0  0  0  0  0  0
   -1.6938    0.2038    0.0000 O   0  0  0  0  0  0  0  0  0  0  0  0
   -1.6938    1.6328    0.0000 O   0  0  0  0  0  0  0  0  0  0  0  0
   -4.8684    1.8158    0.0000 O   0  0  0  0  0  0  0  0  0  0  0  0
  1 11  2  0  0  0  0
  1 12  1  0  0  0  0
  1  3  1  0  0  0  0
  3  2  1  6  0  0  0
  3  4  1  0  0  0  0
  4  5  1  0  0  0  0
  5  6  1  0  0  0  0
  6  7  1  0  0  0  0
  7  8  1  0  0  0  0
  8  9  2  0  0  0  0
  8 10  1  0  0  0  0
 13 19  2  0  0  0  0
 13 20  1  0  0  0  0
 14 15  1  0  0  0  0
 14 18  1  0  0  0  0
 15 13  1  6  0  0  0
 15 16  1  0  0  0  0
 16 17  1  0  0  0  0
 17 18  1  0  0  0  0
 18 21  2  0  0  0  0
M  END
>  <DATABASE_ID>
DB16025

>  <DATABASE_NAME>
drugbank

>  <SMILES>
OC(=O)[C@@H]1CCC(=O)N1.N[C@@H](CCCNC(N)=N)C(O)=O

>  <INCHI_IDENTIFIER>
InChI=1S/C6H14N4O2.C5H7NO3/c7-4(5(11)12)2-1-3-10-6(8)9;7-4-2-1-3(6-4)5(8)9/h4H,1-3,7H2,(H,11,12)(H4,8,9,10);3H,1-2H2,(H,6,7)(H,8,9)/t4-;3-/m00/s1

>  <INCHI_KEY>
UYCAGRPOUWSBIQ-WOYAITHZSA-N

>  <FORMULA>
C11H21N5O5

>  <MOLECULAR_WEIGHT>
303.319

>  <EXACT_MASS>
303.154268796

>  <JCHEM_ACCEPTOR_COUNT>
6

>  <JCHEM_ATOM_COUNT>
42

>  <JCHEM_AVERAGE_NEUTRAL_MICROSPECIES_CHARGE>
0.9925858771308989

>  <JCHEM_AVERAGE_POLARIZABILITY>
18.037652819853935

>  <JCHEM_BIOAVAILABILITY>
1

>  <JCHEM_DONOR_COUNT>
5

>  <JCHEM_FORMAL_CHARGE>
0

>  <JCHEM_GHOSE_FILTER>
0

>  <JCHEM_IUPAC>
(2S)-2-amino-5-carbamimidamidopentanoic acid; (2S)-5-oxopyrrolidine-2-carboxylic acid

>  <ALOGPS_LOGP>
-3.49

>  <JCHEM_LOGP>
-3.1559373774200568

>  <ALOGPS_LOGS>
-1.88

>  <JCHEM_MDDR_LIKE_RULE>
0

>  <JCHEM_NEUTRAL_CHARGE>
1

>  <JCHEM_NUMBER_OF_RINGS>
1

>  <JCHEM_PHYSIOLOGICAL_CHARGE>
1

>  <JCHEM_PKA_STRONGEST_ACIDIC>
2.4118378885304885

>  <JCHEM_PKA_STRONGEST_BASIC>
12.41100429474531

>  <JCHEM_POLAR_SURFACE_AREA>
125.22000000000001

>  <JCHEM_REFRACTIVITY>
53.9231

>  <JCHEM_ROTATABLE_BOND_COUNT>
6

>  <JCHEM_RULE_OF_FIVE>
1

>  <ALOGPS_SOLUBILITY>
2.28e+00 g/l

>  <JCHEM_TRADITIONAL_IUPAC>
monophosphothiamine

>  <JCHEM_VEBER_RULE>
0

>  <DRUGBANK_ID>
DB16025

>  <DRUG_GROUPS>
experimental

>  <GENERIC_NAME>
Arginine PCA

>  <SYNONYMS>
Arginine pidolate; Arginine pyroglutamate; L-arginine L-2-pyrrolidone-5-carboxylate

$$$$

 OpenBabel05042401512D

 24 23  0  0  0  0  0  0  0  0999 V2000
   -0.0073   -0.2211    0.0000 C   0  0  0  0  0  0  0  0  0  0  0  0
   -0.6982   -0.5832    0.0000 C   0  0  0  0  0  0  0  0  0  0  0  0
    0.6946   -0.6087    0.0000 C   0  0  0  0  0  0  0  0  0  0  0  0
   -0.0036    0.6087    0.0000 C   0  0  0  0  0  0  0  0  0  0  0  0
   -1.4002   -0.1773    0.0000 C   0  0  0  0  0  0  0  0  0  0  0  0
    1.4221   -0.2211    0.0000 C   0  0  0  0  0  0  0  0  0  0  0  0
   -2.1533   -0.5905    0.0000 C   0  0  0  0  0  0  0  0  0  0  0  0
    2.1131   -0.6234    0.0000 C   0  0  0  0  0  0  0  0  0  0  0  0
   -2.8845   -0.1553    0.0000 C   0  0  0  0  0  0  0  0  0  0  0  0
    2.8443   -0.2505    0.0000 C   0  0  0  0  0  0  0  0  0  0  0  0
   -3.6049   -0.5575    0.0000 C   0  0  0  0  0  0  0  0  0  0  0  0
   -2.8845    0.6744    0.0000 C   0  0  0  0  0  0  0  0  0  0  0  0
    3.5902   -0.6745    0.0000 C   0  0  0  0  0  0  0  0  0  0  0  0
    2.8443    0.5465    0.0000 C   0  0  0  0  0  0  0  0  0  0  0  0
   -4.3433   -0.1152    0.0000 C   0  0  0  0  0  0  0  0  0  0  0  0
    4.3396   -0.2505    0.0000 C   0  0  0  0  0  0  0  0  0  0  0  0
   -5.0562   -0.5173    0.0000 C   0  0  0  0  0  0  0  0  0  0  0  0
    5.0013   -0.7074    0.0000 C   0  0  0  0  0  0  0  0  0  0  0  0
   -5.7691   -0.1152    0.0000 C   0  0  0  0  0  0  0  0  0  0  0  0
    5.7325   -0.3162    0.0000 C   0  0  0  0  0  0  0  0  0  0  0  0
   -6.5077   -0.4953    0.0000 C   0  0  0  0  0  0  0  0  0  0  0  0
   -5.7801    0.7074    0.0000 C   0  0  0  0  0  0  0  0  0  0  0  0
    6.5077   -0.6745    0.0000 C   0  0  0  0  0  0  0  0  0  0  0  0
    5.7399    0.5392    0.0000 O   0  0  0  0  0  0  0  0  0  0  0  0
  1  2  1  0  0  0  0
  1  3  2  0  0  0  0
  1  4  1  0  0  0  0
  2  5  1  0  0  0  0
  3  6  1  0  0  0  0
  5  7  1  0  0  0  0
  6  8  1  0  0  0  0
  7  9  2  0  0  0  0
  8 10  1  0  0  0  0
  9 11  1  0  0  0  0
  9 12  1  0  0  0  0
 10 13  2  0  0  0  0
 10 14  1  0  0  0  0
 11 15  1  0  0  0  0
 13 16  1  0  0  0  0
 15 17  1  0  0  0  0
 16 18  1  0  0  0  0
 17 19  2  0  0  0  0
 18 20  1  0  0  0  0
 19 21  1  0  0  0  0
 19 22  1  0  0  0  0
 20 23  1  0  0  0  0
 20 24  2  0  0  0  0
M  END
>  <DATABASE_ID>
DB15955

>  <DATABASE_NAME>
drugbank

>  <SMILES>
CC(C)=CCC\C(C)=C\CC\C(C)=C\CC\C(C)=C\CCC(C)=O

>  <INCHI_IDENTIFIER>
InChI=1S/C23H38O/c1-19(2)11-7-12-20(3)13-8-14-21(4)15-9-16-22(5)17-10-18-23(6)24/h11,13,15,17H,7-10,12,14,16,18H2,1-6H3/b20-13+,21-15+,22-17+

>  <INCHI_KEY>
HUCXKZBETONXFO-NJFMWZAGSA-N

>  <FORMULA>
C23H38O

>  <MOLECULAR_WEIGHT>
330.556

>  <EXACT_MASS>
330.292265844

>  <JCHEM_ACCEPTOR_COUNT>
1

>  <JCHEM_ATOM_COUNT>
62

>  <JCHEM_AVERAGE_NEUTRAL_MICROSPECIES_CHARGE>
-2.5190573977359358e-20

>  <JCHEM_AVERAGE_POLARIZABILITY>
43.44829376031231

>  <JCHEM_BIOAVAILABILITY>
0

>  <JCHEM_DONOR_COUNT>
0

>  <JCHEM_FORMAL_CHARGE>
0

>  <JCHEM_GHOSE_FILTER>
0

>  <JCHEM_IUPAC>
(5E,9E,13E)-6,10,14,18-tetramethylnonadeca-5,9,13,17-tetraen-2-one

>  <ALOGPS_LOGP>
6.99

>  <JCHEM_LOGP>
7.001104090333334

>  <ALOGPS_LOGS>
-5.32

>  <JCHEM_MDDR_LIKE_RULE>
0

>  <JCHEM_NEUTRAL_CHARGE>
0

>  <JCHEM_NUMBER_OF_RINGS>
0

>  <JCHEM_PHYSIOLOGICAL_CHARGE>
0

>  <JCHEM_PKA_STRONGEST_ACIDIC>
19.598762051814713

>  <JCHEM_PKA_STRONGEST_BASIC>
-7.277827143039398

>  <JCHEM_POLAR_SURFACE_AREA>
17.07

>  <JCHEM_REFRACTIVITY>
111.43109999999999

>  <JCHEM_ROTATABLE_BOND_COUNT>
12

>  <JCHEM_RULE_OF_FIVE>
0

>  <ALOGPS_SOLUBILITY>
1.60e-03 g/l

>  <JCHEM_TRADITIONAL_IUPAC>
stearyl alcohol

>  <JCHEM_VEBER_RULE>
0

>  <DRUGBANK_ID>
DB15955

>  <DRUG_GROUPS>
experimental

>  <GENERIC_NAME>
Teprenone

>  <SYNONYMS>
Geranylgeranylacetone; Teprenona; Teprenone; Teprenonum; Tetraprenylacetone

$$$$

 OpenBabel05042401512D

 29 33  0  0  1  0  0  0  0  0999 V2000
   -7.4340    2.6420    0.0000 O   0  0  0  0  0  0  0  0  0  0  0  0
   -6.7195    2.2295    0.0000 N   0  0  0  0  0  0  0  0  0  0  0  0
   -6.0050    2.6420    0.0000 C   0  0  0  0  0  0  0  0  0  0  0  0
   -6.0050    3.4670    0.0000 O   0  0  0  0  0  0  0  0  0  0  0  0
   -5.2906    2.2295    0.0000 C   0  0  0  0  0  0  0  0  0  0  0  0
   -4.5761    2.6420    0.0000 C   0  0  0  0  0  0  0  0  0  0  0  0
   -3.8616    2.2295    0.0000 N   0  0  0  0  0  0  0  0  0  0  0  0
   -3.8616    1.4045    0.0000 C   0  0  0  0  0  0  0  0  0  0  0  0
   -4.5761    0.9920    0.0000 N   0  0  0  0  0  0  0  0  0  0  0  0
   -5.2906    1.4045    0.0000 C   0  0  0  0  0  0  0  0  0  0  0  0
   -3.1471    0.9920    0.0000 N   0  0  0  0  0  0  0  0  0  0  0  0
   -2.3935    1.3276    0.0000 C   0  0  0  0  0  0  0  0  0  0  0  0
   -1.8414    0.7145    0.0000 C   0  0  1  0  0  0  0  0  0  0  0  0
   -2.2539    0.0000    0.0000 C   0  0  1  0  0  0  0  0  0  0  0  0
   -3.0609    0.1715    0.0000 C   0  0  0  0  0  0  0  0  0  0  0  0
   -1.4289    0.0000    0.0000 C   0  0  2  0  0  0  0  0  0  0  0  0
   -0.7145   -0.4125    0.0000 N   0  0  0  0  0  0  0  0  0  0  0  0
    0.0000    0.0000    0.0000 C   0  0  0  0  0  0  0  0  0  0  0  0
    0.7145   -0.4125    0.0000 C   0  0  0  0  0  0  0  0  0  0  0  0
    1.4289    0.0000    0.0000 N   0  0  0  0  0  0  0  0  0  0  0  0
    2.1434   -0.4125    0.0000 C   0  0  0  0  0  0  0  0  0  0  0  0
    2.8579    0.0000    0.0000 C   0  0  0  0  0  0  0  0  0  0  0  0
    3.5724   -0.4125    0.0000 C   0  0  0  0  0  0  0  0  0  0  0  0
    3.5724   -1.2375    0.0000 C   0  0  0  0  0  0  0  0  0  0  0  0
    4.2868   -1.6500    0.0000 F   0  0  0  0  0  0  0  0  0  0  0  0
    2.8579   -1.6500    0.0000 C   0  0  0  0  0  0  0  0  0  0  0  0
    2.1434   -1.2375    0.0000 C   0  0  0  0  0  0  0  0  0  0  0  0
    1.4289   -1.6500    0.0000 C   0  0  0  0  0  0  0  0  0  0  0  0
    0.7145   -1.2375    0.0000 C   0  0  0  0  0  0  0  0  0  0  0  0
  1  2  1  0  0  0  0
  2  3  1  0  0  0  0
  3  4  2  0  0  0  0
  3  5  1  0  0  0  0
  5  6  2  0  0  0  0
  5 10  1  0  0  0  0
  6  7  1  0  0  0  0
  7  8  2  0  0  0  0
  8  9  1  0  0  0  0
  8 11  1  0  0  0  0
  9 10  2  0  0  0  0
 11 12  1  0  0  0  0
 11 15  1  0  0  0  0
 13 12  1  6  0  0  0
 13 14  1  0  0  0  0
 13 16  1  0  0  0  0
 14 15  1  6  0  0  0
 14 16  1  0  0  0  0
 16 17  1  1  0  0  0
 17 18  1  0  0  0  0
 18 19  1  0  0  0  0
 19 20  2  0  0  0  0
 19 29  1  0  0  0  0
 20 21  1  0  0  0  0
 21 22  2  0  0  0  0
 21 27  1  0  0  0  0
 22 23  1  0  0  0  0
 23 24  2  0  0  0  0
 24 25  1  0  0  0  0
 24 26  1  0  0  0  0
 26 27  2  0  0  0  0
 27 28  1  0  0  0  0
 28 29  2  0  0  0  0
M  END
>  <DATABASE_ID>
DB15419

>  <DATABASE_NAME>
drugbank

>  <SMILES>
ONC(=O)C1=CN=C(N=C1)N1C[C@H]2[C@@H](C1)[C@@H]2NCC1=NC2=CC=C(F)C=C2C=C1

>  <INCHI_IDENTIFIER>
InChI=1S/C20H19FN6O2/c21-13-2-4-17-11(5-13)1-3-14(25-17)8-22-18-15-9-27(10-16(15)18)20-23-6-12(7-24-20)19(28)26-29/h1-7,15-16,18,22,29H,8-10H2,(H,26,28)/t15-,16+,18+

>  <INCHI_KEY>
QRGHOAATPOLDPF-VQFNDLOPSA-N

>  <FORMULA>
C20H19FN6O2

>  <MOLECULAR_WEIGHT>
394.41

>  <EXACT_MASS>
394.155352039

>  <JCHEM_ACCEPTOR_COUNT>
7

>  <JCHEM_ATOM_COUNT>
48

>  <JCHEM_AVERAGE_POLARIZABILITY>
40.643015619393594

>  <JCHEM_BIOAVAILABILITY>
1

>  <JCHEM_DONOR_COUNT>
3

>  <JCHEM_FORMAL_CHARGE>
0

>  <JCHEM_GHOSE_FILTER>
1

>  <JCHEM_IUPAC>
2-[(1R,5S,6R)-6-{[(6-fluoroquinolin-2-yl)methyl]amino}-3-azabicyclo[3.1.0]hexan-3-yl]-N-hydroxypyrimidine-5-carboxamide

>  <ALOGPS_LOGP>
1.25

>  <JCHEM_LOGP>
0.49679420314820816

>  <ALOGPS_LOGS>
-3.73

>  <JCHEM_MDDR_LIKE_RULE>
0

>  <JCHEM_NUMBER_OF_RINGS>
5

>  <JCHEM_PHYSIOLOGICAL_CHARGE>
1

>  <JCHEM_PKA>
18.215957665154736

>  <JCHEM_PKA_STRONGEST_ACIDIC>
8.894967955245235

>  <JCHEM_PKA_STRONGEST_BASIC>
8.242523529997463

>  <JCHEM_POLAR_SURFACE_AREA>
103.27

>  <JCHEM_REFRACTIVITY>
104.153

>  <JCHEM_ROTATABLE_BOND_COUNT>
5

>  <JCHEM_RULE_OF_FIVE>
1

>  <ALOGPS_SOLUBILITY>
7.34e-02 g/l

>  <JCHEM_TRADITIONAL_IUPAC>
(2R)-14-fluoro-2-methyl-6,9,10,19-tetraazapentacyclo[14.2.1.0^{2,6}.0^{8,18}.0^{12,17}]nonadeca-1(18),8,12(17),13,15-pentaen-11-one

>  <JCHEM_VEBER_RULE>
0

>  <DRUGBANK_ID>
DB15419

>  <DRUG_GROUPS>
investigational

>  <GENERIC_NAME>
Nanatinostat

>  <SYNONYMS>
Nanatinostat

$$$$

 OpenBabel05042401512D

 35 37  0  0  0  0  0  0  0  0999 V2000
   -3.4618   -1.6500    0.0000 H   0  0  0  0  0  0  0  0  0  0  0  0
   -4.2868   -1.6500    0.0000 C   0  0  0  0  0  0  0  0  0  0  0  0
   -4.2868   -0.8250    0.0000 H   0  0  0  0  0  0  0  0  0  0  0  0
   -5.1118   -1.6500    0.0000 H   0  0  0  0  0  0  0  0  0  0  0  0
   -4.2868   -2.4750    0.0000 N   0  0  0  0  0  0  0  0  0  0  0  0
   -3.5724   -2.8875    0.0000 C   0  0  0  0  0  0  0  0  0  0  0  0
   -2.8579   -2.4750    0.0000 O   0  0  0  0  0  0  0  0  0  0  0  0
   -3.5724   -3.7125    0.0000 C   0  0  0  0  0  0  0  0  0  0  0  0
   -2.8579   -4.1250    0.0000 C   0  0  0  0  0  0  0  0  0  0  0  0
   -2.8579   -4.9500    0.0000 C   0  0  0  0  0  0  0  0  0  0  0  0
   -2.1434   -5.3625    0.0000 O   0  0  0  0  0  0  0  0  0  0  0  0
   -2.1434   -6.1875    0.0000 C   0  0  0  0  0  0  0  0  0  0  0  0
   -1.4289   -6.6000    0.0000 C   0  0  0  0  0  0  0  0  0  0  0  0
   -1.4289   -7.4250    0.0000 C   0  0  0  0  0  0  0  0  0  0  0  0
   -2.1434   -7.8375    0.0000 C   0  0  0  0  0  0  0  0  0  0  0  0
   -2.1434   -8.6625    0.0000 N   0  0  0  0  0  0  0  0  0  0  0  0
   -2.8579   -9.0750    0.0000 C   0  0  0  0  0  0  0  0  0  0  0  0
   -3.5724   -8.6625    0.0000 O   0  0  0  0  0  0  0  0  0  0  0  0
   -2.8579   -9.9000    0.0000 N   0  0  0  0  0  0  0  0  0  0  0  0
   -2.1434  -10.3125    0.0000 C   0  0  0  0  0  0  0  0  0  0  0  0
   -1.4289   -9.9000    0.0000 C   0  0  0  0  0  0  0  0  0  0  0  0
   -0.7145  -10.3125    0.0000 C   0  0  0  0  0  0  0  0  0  0  0  0
   -0.7145  -11.1375    0.0000 C   0  0  0  0  0  0  0  0  0  0  0  0
   -0.0000  -11.5500    0.0000 Cl  0  0  0  0  0  0  0  0  0  0  0  0
   -1.4289  -11.5500    0.0000 C   0  0  0  0  0  0  0  0  0  0  0  0
   -2.1434  -11.1375    0.0000 C   0  0  0  0  0  0  0  0  0  0  0  0
   -1.4289  -12.3750    0.0000 C   0  0  0  0  0  0  0  0  0  0  0  0
   -1.4289  -13.2000    0.0000 F   0  0  0  0  0  0  0  0  0  0  0  0
   -2.2539  -12.3750    0.0000 F   0  0  0  0  0  0  0  0  0  0  0  0
   -0.6039  -12.3750    0.0000 F   0  0  0  0  0  0  0  0  0  0  0  0
   -2.8579   -7.4250    0.0000 C   0  0  0  0  0  0  0  0  0  0  0  0
   -2.8579   -6.6000    0.0000 C   0  0  0  0  0  0  0  0  0  0  0  0
   -3.5724   -5.3625    0.0000 C   0  0  0  0  0  0  0  0  0  0  0  0
   -4.2868   -4.9500    0.0000 C   0  0  0  0  0  0  0  0  0  0  0  0
   -4.2868   -4.1250    0.0000 N   0  0  0  0  0  0  0  0  0  0  0  0
  1  2  1  0  0  0  0
  2  3  1  0  0  0  0
  2  4  1  0  0  0  0
  2  5  1  0  0  0  0
  5  6  1  0  0  0  0
  6  7  2  0  0  0  0
  6  8  1  0  0  0  0
  8  9  2  0  0  0  0
  8 35  1  0  0  0  0
  9 10  1  0  0  0  0
 10 11  1  0  0  0  0
 10 33  2  0  0  0  0
 11 12  1  0  0  0  0
 12 13  2  0  0  0  0
 12 32  1  0  0  0  0
 13 14  1  0  0  0  0
 14 15  2  0  0  0  0
 15 16  1  0  0  0  0
 15 31  1  0  0  0  0
 16 17  1  0  0  0  0
 17 18  2  0  0  0  0
 17 19  1  0  0  0  0
 19 20  1  0  0  0  0
 20 21  2  0  0  0  0
 20 26  1  0  0  0  0
 21 22  1  0  0  0  0
 22 23  2  0  0  0  0
 23 24  1  0  0  0  0
 23 25  1  0  0  0  0
 25 26  2  0  0  0  0
 25 27  1  0  0  0  0
 27 28  1  0  0  0  0
 27 29  1  0  0  0  0
 27 30  1  0  0  0  0
 31 32  2  0  0  0  0
 33 34  1  0  0  0  0
 34 35  2  0  0  0  0
M  ISO  3   1   2   3   2   4   2
M  END
>  <DATABASE_ID>
DB15414

>  <DATABASE_NAME>
drugbank

>  <SMILES>
[2H]C([2H])([2H])NC(=O)C1=CC(OC2=CC=C(NC(=O)NC3=CC=C(Cl)C(=C3)C(F)(F)F)C=C2)=CC=N1

>  <INCHI_IDENTIFIER>
InChI=1S/C21H16ClF3N4O3/c1-26-19(30)18-11-15(8-9-27-18)32-14-5-2-12(3-6-14)28-20(31)29-13-4-7-17(22)16(10-13)21(23,24)25/h2-11H,1H3,(H,26,30)(H2,28,29,31)/i1D3

>  <INCHI_KEY>
MLDQJTXFUGDVEO-FIBGUPNXSA-N

>  <FORMULA>
C21H16ClF3N4O3

>  <MOLECULAR_WEIGHT>
467.85

>  <EXACT_MASS>
467.1051328

>  <JCHEM_ACCEPTOR_COUNT>
3

>  <JCHEM_ATOM_COUNT>
48

>  <JCHEM_AVERAGE_POLARIZABILITY>
41.228131986641976

>  <JCHEM_BIOAVAILABILITY>
1

>  <JCHEM_DONOR_COUNT>
3

>  <JCHEM_FORMAL_CHARGE>
0

>  <JCHEM_GHOSE_FILTER>
1

>  <JCHEM_IUPAC>
4-[4-({[4-chloro-3-(trifluoromethyl)phenyl]carbamoyl}amino)phenoxy]-N-(2H3)methylpyridine-2-carboxamide

>  <ALOGPS_LOGP>
4.12

>  <JCHEM_LOGP>
4.343329760666666

>  <ALOGPS_LOGS>
-5.43

>  <JCHEM_MDDR_LIKE_RULE>
1

>  <JCHEM_NUMBER_OF_RINGS>
3

>  <JCHEM_PHYSIOLOGICAL_CHARGE>
0

>  <JCHEM_PKA>
13.997061093666286

>  <JCHEM_PKA_STRONGEST_ACIDIC>
11.549797587623363

>  <JCHEM_PKA_STRONGEST_BASIC>
3.029916234990676

>  <JCHEM_POLAR_SURFACE_AREA>
92.35000000000001

>  <JCHEM_REFRACTIVITY>
114.51830000000001

>  <JCHEM_ROTATABLE_BOND_COUNT>
6

>  <JCHEM_RULE_OF_FIVE>
1

>  <ALOGPS_SOLUBILITY>
1.71e-03 g/l

>  <JCHEM_TRADITIONAL_IUPAC>
(2R)-14-fluoro-2-methyl-6,9,10,19-tetraazapentacyclo[14.2.1.0^{2,6}.0^{8,18}.0^{12,17}]nonadeca-1(18),8,12(17),13,15-pentaen-11-one

>  <JCHEM_VEBER_RULE>
0

>  <DRUGBANK_ID>
DB15414

>  <DRUG_GROUPS>
investigational

>  <GENERIC_NAME>
CM-4307

>  <SYNONYMS>
DONAFENIB

$$$$

 OpenBabel05042401512D

 29 32  0  0  0  0  0  0  0  0999 V2000
   -0.7145   -5.3625    0.0000 C   0  0  0  0  0  0  0  0  0  0  0  0
    0.0000   -4.9500    0.0000 N   0  0  0  0  0  0  0  0  0  0  0  0
    0.0000   -4.1250    0.0000 C   0  0  0  0  0  0  0  0  0  0  0  0
   -0.7145   -3.7125    0.0000 O   0  0  0  0  0  0  0  0  0  0  0  0
    0.7145   -3.7125    0.0000 C   0  0  0  0  0  0  0  0  0  0  0  0
    0.7145   -2.8875    0.0000 C   0  0  0  0  0  0  0  0  0  0  0  0
    1.4289   -2.4750    0.0000 C   0  0  0  0  0  0  0  0  0  0  0  0
    1.4289   -1.6500    0.0000 C   0  0  0  0  0  0  0  0  0  0  0  0
    0.7145   -1.2375    0.0000 O   0  0  0  0  0  0  0  0  0  0  0  0
    0.7145   -0.4125    0.0000 C   0  0  0  0  0  0  0  0  0  0  0  0
    0.0000    0.0000    0.0000 C   0  0  0  0  0  0  0  0  0  0  0  0
   -0.7846   -0.2549    0.0000 O   0  0  0  0  0  0  0  0  0  0  0  0
   -1.2695    0.4125    0.0000 C   0  0  0  0  0  0  0  0  0  0  0  0
   -0.7846    1.0799    0.0000 C   0  0  0  0  0  0  0  0  0  0  0  0
    0.0000    0.8250    0.0000 C   0  0  0  0  0  0  0  0  0  0  0  0
    0.7145    1.2375    0.0000 C   0  0  0  0  0  0  0  0  0  0  0  0
    0.7145    2.0625    0.0000 N   0  0  0  0  0  0  0  0  0  0  0  0
    1.4289    2.4750    0.0000 C   0  0  0  0  0  0  0  0  0  0  0  0
    1.4289    3.3000    0.0000 C   0  0  0  0  0  0  0  0  0  0  0  0
    2.1434    3.7125    0.0000 C   0  0  0  0  0  0  0  0  0  0  0  0
    2.8579    3.3000    0.0000 C   0  0  0  0  0  0  0  0  0  0  0  0
    3.5724    3.7125    0.0000 Cl  0  0  0  0  0  0  0  0  0  0  0  0
    2.8579    2.4750    0.0000 C   0  0  0  0  0  0  0  0  0  0  0  0
    2.1434    2.0625    0.0000 C   0  0  0  0  0  0  0  0  0  0  0  0
    1.4289    0.8250    0.0000 N   0  0  0  0  0  0  0  0  0  0  0  0
    1.4289    0.0000    0.0000 N   0  0  0  0  0  0  0  0  0  0  0  0
    2.1434   -2.8875    0.0000 C   0  0  0  0  0  0  0  0  0  0  0  0
    2.1434   -3.7125    0.0000 C   0  0  0  0  0  0  0  0  0  0  0  0
    1.4289   -4.1250    0.0000 N   0  0  0  0  0  0  0  0  0  0  0  0
  1  2  1  0  0  0  0
  2  3  1  0  0  0  0
  3  4  2  0  0  0  0
  3  5  1  0  0  0  0
  5  6  2  0  0  0  0
  5 29  1  0  0  0  0
  6  7  1  0  0  0  0
  7  8  1  0  0  0  0
  7 27  2  0  0  0  0
  8  9  1  0  0  0  0
  9 10  1  0  0  0  0
 10 11  2  0  0  0  0
 10 26  1  0  0  0  0
 11 12  1  0  0  0  0
 11 15  1  0  0  0  0
 12 13  1  0  0  0  0
 13 14  2  0  0  0  0
 14 15  1  0  0  0  0
 15 16  2  0  0  0  0
 16 17  1  0  0  0  0
 16 25  1  0  0  0  0
 17 18  1  0  0  0  0
 18 19  2  0  0  0  0
 18 24  1  0  0  0  0
 19 20  1  0  0  0  0
 20 21  2  0  0  0  0
 21 22  1  0  0  0  0
 21 23  1  0  0  0  0
 23 24  2  0  0  0  0
 25 26  2  0  0  0  0
 27 28  1  0  0  0  0
 28 29  2  0  0  0  0
M  END
>  <DATABASE_ID>
DB15393

>  <DATABASE_NAME>
drugbank

>  <SMILES>
CNC(=O)C1=CC(COC2=C3OC=CC3=C(NC3=CC=C(Cl)C=C3)N=N2)=CC=N1

>  <INCHI_IDENTIFIER>
InChI=1S/C20H16ClN5O3/c1-22-19(27)16-10-12(6-8-23-16)11-29-20-17-15(7-9-28-17)18(25-26-20)24-14-4-2-13(21)3-5-14/h2-10H,11H2,1H3,(H,22,27)(H,24,25)

>  <INCHI_KEY>
QFCXANHHBCGMAS-UHFFFAOYSA-N

>  <FORMULA>
C20H16ClN5O3

>  <MOLECULAR_WEIGHT>
409.83

>  <EXACT_MASS>
409.0941671

>  <JCHEM_ACCEPTOR_COUNT>
6

>  <JCHEM_ATOM_COUNT>
45

>  <JCHEM_AVERAGE_POLARIZABILITY>
41.64708857309192

>  <JCHEM_BIOAVAILABILITY>
1

>  <JCHEM_DONOR_COUNT>
2

>  <JCHEM_FORMAL_CHARGE>
0

>  <JCHEM_GHOSE_FILTER>
1

>  <JCHEM_IUPAC>
4-[({4-[(4-chlorophenyl)amino]furo[2,3-d]pyridazin-7-yl}oxy)methyl]-N-methylpyridine-2-carboxamide

>  <ALOGPS_LOGP>
3.79

>  <JCHEM_LOGP>
2.9771084599999997

>  <ALOGPS_LOGS>
-3.82

>  <JCHEM_MDDR_LIKE_RULE>
1

>  <JCHEM_NUMBER_OF_RINGS>
4

>  <JCHEM_PHYSIOLOGICAL_CHARGE>
0

>  <JCHEM_PKA>
15.253929197142071

>  <JCHEM_PKA_STRONGEST_ACIDIC>
14.279079876627211

>  <JCHEM_PKA_STRONGEST_BASIC>
2.0463536862687337

>  <JCHEM_POLAR_SURFACE_AREA>
102.17

>  <JCHEM_REFRACTIVITY>
109.0455

>  <JCHEM_ROTATABLE_BOND_COUNT>
6

>  <JCHEM_RULE_OF_FIVE>
1

>  <ALOGPS_SOLUBILITY>
6.15e-02 g/l

>  <JCHEM_TRADITIONAL_IUPAC>
(2R)-14-fluoro-2-methyl-6,9,10,19-tetraazapentacyclo[14.2.1.0^{2,6}.0^{8,18}.0^{12,17}]nonadeca-1(18),8,12(17),13,15-pentaen-11-one

>  <JCHEM_VEBER_RULE>
0

>  <DRUGBANK_ID>
DB15393

>  <DRUG_GROUPS>
investigational

>  <GENERIC_NAME>
Telatinib

>  <SYNONYMS>
Telatinib

$$$$

 OpenBabel05042401512D

 30 33  0  0  1  0  0  0  0  0999 V2000
    0.8838   -2.1500    0.0000 C   0  0  0  0  0  0  0  0  0  0  0  0
    1.1387   -1.3654    0.0000 C   0  0  1  0  0  0  0  0  0  0  0  0
    0.6538   -0.6979    0.0000 O   0  0  0  0  0  0  0  0  0  0  0  0
    1.1387   -0.0305    0.0000 C   0  0  0  0  0  0  0  0  0  0  0  0
    1.9233   -0.2854    0.0000 C   0  0  2  0  0  0  0  0  0  0  0  0
    2.6378    0.1271    0.0000 N   0  0  0  0  0  0  0  0  0  0  0  0
    3.3523   -0.2854    0.0000 C   0  0  0  0  0  0  0  0  0  0  0  0
    4.0668    0.1271    0.0000 N   0  0  0  0  0  0  0  0  0  0  0  0
    3.3523   -1.1104    0.0000 S   0  0  0  0  0  0  0  0  0  0  0  0
    2.6378   -1.5229    0.0000 C   0  0  0  0  0  0  0  0  0  0  0  0
    1.9233   -1.1104    0.0000 C   0  0  2  0  0  0  0  0  0  0  0  0
    1.8371    0.5350    0.0000 C   0  0  0  0  0  0  0  0  0  0  0  0
    1.0834    0.8706    0.0000 C   0  0  0  0  0  0  0  0  0  0  0  0
    0.9972    1.6911    0.0000 C   0  0  0  0  0  0  0  0  0  0  0  0
    0.2435    2.0266    0.0000 N   0  0  0  0  0  0  0  0  0  0  0  0
   -0.4239    1.5417    0.0000 C   0  0  0  0  0  0  0  0  0  0  0  0
   -0.3377    0.7212    0.0000 O   0  0  0  0  0  0  0  0  0  0  0  0
   -1.1776    1.8773    0.0000 C   0  0  0  0  0  0  0  0  0  0  0  0
   -1.8450    1.3923    0.0000 N   0  0  0  0  0  0  0  0  0  0  0  0
   -2.5987    1.7279    0.0000 C   0  0  0  0  0  0  0  0  0  0  0  0
   -2.6849    2.5484    0.0000 C   0  0  0  0  0  0  0  0  0  0  0  0
   -2.0175    3.0333    0.0000 N   0  0  0  0  0  0  0  0  0  0  0  0
   -1.2638    2.6977    0.0000 C   0  0  0  0  0  0  0  0  0  0  0  0
   -3.4386    2.8839    0.0000 C   0  0  0  0  0  0  0  0  0  0  0  0
   -4.1061    2.3990    0.0000 F   0  0  0  0  0  0  0  0  0  0  0  0
   -3.5249    3.7044    0.0000 F   0  0  0  0  0  0  0  0  0  0  0  0
    1.6646    2.1760    0.0000 C   0  0  0  0  0  0  0  0  0  0  0  0
    2.4183    1.8404    0.0000 C   0  0  0  0  0  0  0  0  0  0  0  0
    2.5045    1.0200    0.0000 C   0  0  0  0  0  0  0  0  0  0  0  0
    3.2582    0.6844    0.0000 F   0  0  0  0  0  0  0  0  0  0  0  0
  2  1  1  1  0  0  0
  2  3  1  0  0  0  0
  3  4  1  0  0  0  0
  5  4  1  0  0  0  0
  5  6  1  0  0  0  0
  5 12  1  1  0  0  0
  6  7  2  0  0  0  0
  7  8  1  0  0  0  0
  7  9  1  0  0  0  0
  9 10  1  0  0  0  0
 11 10  1  6  0  0  0
 11  2  1  0  0  0  0
 11  5  1  0  0  0  0
 12 13  2  0  0  0  0
 12 29  1  0  0  0  0
 13 14  1  0  0  0  0
 14 15  1  0  0  0  0
 14 27  2  0  0  0  0
 15 16  1  0  0  0  0
 16 17  2  0  0  0  0
 16 18  1  0  0  0  0
 18 19  2  0  0  0  0
 18 23  1  0  0  0  0
 19 20  1  0  0  0  0
 20 21  2  0  0  0  0
 21 22  1  0  0  0  0
 21 24  1  0  0  0  0
 22 23  2  0  0  0  0
 24 25  1  0  0  0  0
 24 26  1  0  0  0  0
 27 28  1  0  0  0  0
 28 29  2  0  0  0  0
 29 30  1  0  0  0  0
M  END
>  <DATABASE_ID>
DB15391

>  <DATABASE_NAME>
drugbank

>  <SMILES>
C[C@H]1OC[C@@]2(N=C(N)SC[C@H]12)C1=CC(NC(=O)C2=NC=C(N=C2)C(F)F)=CC=C1F

>  <INCHI_IDENTIFIER>
InChI=1S/C19H18F3N5O2S/c1-9-12-7-30-18(23)27-19(12,8-29-9)11-4-10(2-3-13(11)20)26-17(28)15-6-24-14(5-25-15)16(21)22/h2-6,9,12,16H,7-8H2,1H3,(H2,23,27)(H,26,28)/t9-,12-,19-/m1/s1

>  <INCHI_KEY>
AACUJFVOHGRMTR-DPXNYUHVSA-N

>  <FORMULA>
C19H18F3N5O2S

>  <MOLECULAR_WEIGHT>
437.44

>  <EXACT_MASS>
437.113330503

>  <JCHEM_ACCEPTOR_COUNT>
6

>  <JCHEM_ATOM_COUNT>
48

>  <JCHEM_AVERAGE_POLARIZABILITY>
40.55963575832415

>  <JCHEM_BIOAVAILABILITY>
1

>  <JCHEM_DONOR_COUNT>
2

>  <JCHEM_FORMAL_CHARGE>
0

>  <JCHEM_GHOSE_FILTER>
1

>  <JCHEM_IUPAC>
N-{3-[(4aS,5R,7aS)-2-amino-5-methyl-4H,4aH,5H,7H,7aH-furo[3,4-d][1,3]thiazin-7a-yl]-4-fluorophenyl}-5-(difluoromethyl)pyrazine-2-carboxamide

>  <ALOGPS_LOGP>
2.56

>  <JCHEM_LOGP>
2.052839319333333

>  <ALOGPS_LOGS>
-4.37

>  <JCHEM_MDDR_LIKE_RULE>
0

>  <JCHEM_NUMBER_OF_RINGS>
4

>  <JCHEM_PHYSIOLOGICAL_CHARGE>
1

>  <JCHEM_PKA_STRONGEST_ACIDIC>
13.482242788692922

>  <JCHEM_PKA_STRONGEST_BASIC>
7.471902576755299

>  <JCHEM_POLAR_SURFACE_AREA>
102.49000000000001

>  <JCHEM_REFRACTIVITY>
105.55879999999999

>  <JCHEM_ROTATABLE_BOND_COUNT>
4

>  <JCHEM_RULE_OF_FIVE>
1

>  <ALOGPS_SOLUBILITY>
1.88e-02 g/l

>  <JCHEM_TRADITIONAL_IUPAC>
(2R)-14-fluoro-2-methyl-6,9,10,19-tetraazapentacyclo[14.2.1.0^{2,6}.0^{8,18}.0^{12,17}]nonadeca-1(18),8,12(17),13,15-pentaen-11-one

>  <JCHEM_VEBER_RULE>
0

>  <DRUGBANK_ID>
DB15391

>  <DRUG_GROUPS>
investigational

>  <GENERIC_NAME>
Elenbecestat

>  <SYNONYMS>
Elenbecestat

$$$$

 OpenBabel05042401512D

 38 43  0  0  0  0  0  0  0  0999 V2000
    4.2468   -4.0634    0.0000 F   0  0  0  0  0  0  0  0  0  0  0  0
    3.5323   -3.6509    0.0000 C   0  0  0  0  0  0  0  0  0  0  0  0
    2.8179   -4.0634    0.0000 C   0  0  0  0  0  0  0  0  0  0  0  0
    2.1034   -3.6509    0.0000 C   0  0  0  0  0  0  0  0  0  0  0  0
    2.1034   -2.8259    0.0000 C   0  0  0  0  0  0  0  0  0  0  0  0
    2.8179   -2.4134    0.0000 C   0  0  0  0  0  0  0  0  0  0  0  0
    3.5323   -2.8259    0.0000 C   0  0  0  0  0  0  0  0  0  0  0  0
    1.3889   -2.4134    0.0000 C   0  0  0  0  0  0  0  0  0  0  0  0
    0.6745   -2.8259    0.0000 N   0  0  0  0  0  0  0  0  0  0  0  0
   -0.0400   -2.4134    0.0000 N   0  0  0  0  0  0  0  0  0  0  0  0
   -0.8246   -2.6683    0.0000 C   0  0  0  0  0  0  0  0  0  0  0  0
   -1.0796   -3.4530    0.0000 S   0  0  0  0  0  0  0  0  0  0  0  0
   -0.5275   -4.0660    0.0000 C   0  0  0  0  0  0  0  0  0  0  0  0
    0.2794   -3.8945    0.0000 C   0  0  0  0  0  0  0  0  0  0  0  0
    0.8315   -4.5076    0.0000 C   0  0  0  0  0  0  0  0  0  0  0  0
    0.5765   -5.2922    0.0000 C   0  0  0  0  0  0  0  0  0  0  0  0
    0.9890   -6.0067    0.0000 N   0  0  0  0  0  0  0  0  0  0  0  0
    0.4370   -6.6198    0.0000 C   0  0  0  0  0  0  0  0  0  0  0  0
    0.6085   -7.4268    0.0000 N   0  0  0  0  0  0  0  0  0  0  0  0
   -0.0046   -7.9788    0.0000 C   0  0  0  0  0  0  0  0  0  0  0  0
   -0.7892   -7.7239    0.0000 O   0  0  0  0  0  0  0  0  0  0  0  0
    0.1670   -8.7858    0.0000 N   0  0  0  0  0  0  0  0  0  0  0  0
   -0.4461   -9.3378    0.0000 C   0  0  0  0  0  0  0  0  0  0  0  0
   -0.2746  -10.1448    0.0000 C   0  0  0  0  0  0  0  0  0  0  0  0
   -0.8877  -10.6968    0.0000 N   0  0  0  0  0  0  0  0  0  0  0  0
   -0.7162  -11.5038    0.0000 C   0  0  0  0  0  0  0  0  0  0  0  0
   -1.3293  -12.0558    0.0000 C   0  0  0  0  0  0  0  0  0  0  0  0
   -2.1139  -11.8009    0.0000 O   0  0  0  0  0  0  0  0  0  0  0  0
   -2.2854  -10.9939    0.0000 C   0  0  0  0  0  0  0  0  0  0  0  0
   -1.6723  -10.4419    0.0000 C   0  0  0  0  0  0  0  0  0  0  0  0
   -0.3167   -6.2842    0.0000 S   0  0  0  0  0  0  0  0  0  0  0  0
   -0.2304   -5.4638    0.0000 C   0  0  0  0  0  0  0  0  0  0  0  0
   -0.7825   -4.8507    0.0000 C   0  0  0  0  0  0  0  0  0  0  0  0
   -1.3096   -2.0009    0.0000 N   0  0  0  0  0  0  0  0  0  0  0  0
   -0.8246   -1.3335    0.0000 N   0  0  0  0  0  0  0  0  0  0  0  0
   -0.0400   -1.5884    0.0000 C   0  0  0  0  0  0  0  0  0  0  0  0
    0.6745   -1.1759    0.0000 C   0  0  0  0  0  0  0  0  0  0  0  0
    1.3889   -1.5884    0.0000 C   0  0  0  0  0  0  0  0  0  0  0  0
  1  2  1  0  0  0  0
  2  3  2  0  0  0  0
  2  7  1  0  0  0  0
  3  4  1  0  0  0  0
  4  5  2  0  0  0  0
  5  6  1  0  0  0  0
  5  8  1  0  0  0  0
  6  7  2  0  0  0  0
  8  9  2  0  0  0  0
  8 38  1  0  0  0  0
  9 10  1  0  0  0  0
 10 11  1  0  0  0  0
 10 36  1  0  0  0  0
 11 12  1  0  0  0  0
 11 34  2  0  0  0  0
 12 13  1  0  0  0  0
 13 14  2  0  0  0  0
 13 33  1  0  0  0  0
 14 15  1  0  0  0  0
 15 16  2  0  0  0  0
 16 17  1  0  0  0  0
 16 32  1  0  0  0  0
 17 18  2  0  0  0  0
 18 19  1  0  0  0  0
 18 31  1  0  0  0  0
 19 20  1  0  0  0  0
 20 21  2  0  0  0  0
 20 22  1  0  0  0  0
 22 23  1  0  0  0  0
 23 24  1  0  0  0  0
 24 25  1  0  0  0  0
 25 26  1  0  0  0  0
 25 30  1  0  0  0  0
 26 27  1  0  0  0  0
 27 28  1  0  0  0  0
 28 29  1  0  0  0  0
 29 30  1  0  0  0  0
 31 32  1  0  0  0  0
 32 33  2  0  0  0  0
 34 35  1  0  0  0  0
 35 36  2  0  0  0  0
 36 37  1  0  0  0  0
 37 38  2  0  0  0  0
M  END
>  <DATABASE_ID>
DB15382

>  <DATABASE_NAME>
drugbank

>  <SMILES>
FC1=CC=C(C=C1)C1=NN2C(SC3=CC=C4N=C(NC(=O)NCCN5CCOCC5)SC4=C3)=NN=C2C=C1

>  <INCHI_IDENTIFIER>
InChI=1S/C25H23FN8O2S2/c26-17-3-1-16(2-4-17)19-7-8-22-30-31-25(34(22)32-19)37-18-5-6-20-21(15-18)38-24(28-20)29-23(35)27-9-10-33-11-13-36-14-12-33/h1-8,15H,9-14H2,(H2,27,28,29,35)

>  <INCHI_KEY>
ODIUNTQOXRXOIV-UHFFFAOYSA-N

>  <FORMULA>
C25H23FN8O2S2

>  <MOLECULAR_WEIGHT>
550.63

>  <EXACT_MASS>
550.136942524

>  <JCHEM_ACCEPTOR_COUNT>
7

>  <JCHEM_ATOM_COUNT>
61

>  <JCHEM_AVERAGE_POLARIZABILITY>
55.093764136177136

>  <JCHEM_BIOAVAILABILITY>
1

>  <JCHEM_DONOR_COUNT>
2

>  <JCHEM_FORMAL_CHARGE>
0

>  <JCHEM_GHOSE_FILTER>
0

>  <JCHEM_IUPAC>
3-(6-{[6-(4-fluorophenyl)-[1,2,4]triazolo[4,3-b]pyridazin-3-yl]sulfanyl}-1,3-benzothiazol-2-yl)-1-[2-(morpholin-4-yl)ethyl]urea

>  <ALOGPS_LOGP>
3.34

>  <JCHEM_LOGP>
4.38855424416204

>  <ALOGPS_LOGS>
-5.54

>  <JCHEM_MDDR_LIKE_RULE>
1

>  <JCHEM_NUMBER_OF_RINGS>
6

>  <JCHEM_PHYSIOLOGICAL_CHARGE>
0

>  <JCHEM_PKA_STRONGEST_ACIDIC>
7.803625269923495

>  <JCHEM_PKA_STRONGEST_BASIC>
6.022746750604206

>  <JCHEM_POLAR_SURFACE_AREA>
109.57

>  <JCHEM_REFRACTIVITY>
157.20179999999993

>  <JCHEM_ROTATABLE_BOND_COUNT>
7

>  <JCHEM_RULE_OF_FIVE>
0

>  <ALOGPS_SOLUBILITY>
1.57e-03 g/l

>  <JCHEM_TRADITIONAL_IUPAC>
(2R)-14-fluoro-2-methyl-6,9,10,19-tetraazapentacyclo[14.2.1.0^{2,6}.0^{8,18}.0^{12,17}]nonadeca-1(18),8,12(17),13,15-pentaen-11-one

>  <JCHEM_VEBER_RULE>
0

>  <DRUGBANK_ID>
DB15382

>  <DRUG_GROUPS>
investigational

>  <GENERIC_NAME>
SAR-125844

$$$$

 OpenBabel05042401512D

 38 39  0  0  0  0  0  0  0  0999 V2000
  -15.0039   -0.4125    0.0000 C   0  0  0  0  0  0  0  0  0  0  0  0
  -14.2894    0.0000    0.0000 C   0  0  0  0  0  0  0  0  0  0  0  0
  -14.2894    0.8250    0.0000 C   0  0  0  0  0  0  0  0  0  0  0  0
  -13.5749   -0.4125    0.0000 C   0  0  0  0  0  0  0  0  0  0  0  0
  -12.8605    0.0000    0.0000 C   0  0  0  0  0  0  0  0  0  0  0  0
  -12.1460   -0.4125    0.0000 C   0  0  0  0  0  0  0  0  0  0  0  0
  -11.4315    0.0000    0.0000 C   0  0  0  0  0  0  0  0  0  0  0  0
  -11.4315    0.8250    0.0000 C   0  0  0  0  0  0  0  0  0  0  0  0
  -10.7171   -0.4125    0.0000 C   0  0  0  0  0  0  0  0  0  0  0  0
  -10.0026    0.0000    0.0000 C   0  0  0  0  0  0  0  0  0  0  0  0
   -9.2881   -0.4125    0.0000 C   0  0  0  0  0  0  0  0  0  0  0  0
   -8.5737    0.0000    0.0000 C   0  0  0  0  0  0  0  0  0  0  0  0
   -8.5737    0.8250    0.0000 C   0  0  0  0  0  0  0  0  0  0  0  0
   -7.8592   -0.4125    0.0000 C   0  0  0  0  0  0  0  0  0  0  0  0
   -7.1447    0.0000    0.0000 C   0  0  0  0  0  0  0  0  0  0  0  0
   -6.4302   -0.4125    0.0000 C   0  0  0  0  0  0  0  0  0  0  0  0
   -5.7158    0.0000    0.0000 C   0  0  0  0  0  0  0  0  0  0  0  0
   -5.7158    0.8250    0.0000 C   0  0  0  0  0  0  0  0  0  0  0  0
   -5.0013   -0.4125    0.0000 C   0  0  0  0  0  0  0  0  0  0  0  0
   -4.2868    0.0000    0.0000 C   0  0  0  0  0  0  0  0  0  0  0  0
   -3.5724   -0.4125    0.0000 C   0  0  0  0  0  0  0  0  0  0  0  0
   -2.8579    0.0000    0.0000 C   0  0  0  0  0  0  0  0  0  0  0  0
   -2.8579    0.8250    0.0000 C   0  0  0  0  0  0  0  0  0  0  0  0
   -2.1434   -0.4125    0.0000 C   0  0  0  0  0  0  0  0  0  0  0  0
   -1.4289    0.0000    0.0000 C   0  0  0  0  0  0  0  0  0  0  0  0
   -0.7145   -0.4125    0.0000 C   0  0  0  0  0  0  0  0  0  0  0  0
   -0.7145   -1.2375    0.0000 C   0  0  0  0  0  0  0  0  0  0  0  0
   -1.4289   -1.6500    0.0000 C   0  0  0  0  0  0  0  0  0  0  0  0
    0.0000   -1.6500    0.0000 C   0  0  0  0  0  0  0  0  0  0  0  0
    0.0000   -2.4750    0.0000 O   0  0  0  0  0  0  0  0  0  0  0  0
    0.7145   -1.2375    0.0000 C   0  0  0  0  0  0  0  0  0  0  0  0
    0.7145   -0.4125    0.0000 C   0  0  0  0  0  0  0  0  0  0  0  0
    1.4289   -0.0000    0.0000 C   0  0  0  0  0  0  0  0  0  0  0  0
    2.1434   -0.4125    0.0000 C   0  0  0  0  0  0  0  0  0  0  0  0
    2.1434   -1.2375    0.0000 C   0  0  0  0  0  0  0  0  0  0  0  0
    1.4289   -1.6500    0.0000 C   0  0  0  0  0  0  0  0  0  0  0  0
    0.0000   -0.0000    0.0000 C   0  0  0  0  0  0  0  0  0  0  0  0
    0.0000    0.8250    0.0000 O   0  0  0  0  0  0  0  0  0  0  0  0
  1  2  1  0  0  0  0
  2  3  1  0  0  0  0
  2  4  2  0  0  0  0
  4  5  1  0  0  0  0
  5  6  1  0  0  0  0
  6  7  1  0  0  0  0
  7  8  1  0  0  0  0
  7  9  2  0  0  0  0
  9 10  1  0  0  0  0
 10 11  1  0  0  0  0
 11 12  1  0  0  0  0
 12 13  1  0  0  0  0
 12 14  2  0  0  0  0
 14 15  1  0  0  0  0
 15 16  1  0  0  0  0
 16 17  1  0  0  0  0
 17 18  1  0  0  0  0
 17 19  2  0  0  0  0
 19 20  1  0  0  0  0
 20 21  1  0  0  0  0
 21 22  1  0  0  0  0
 22 23  1  0  0  0  0
 22 24  2  0  0  0  0
 24 25  1  0  0  0  0
 25 26  1  0  0  0  0
 26 27  2  0  0  0  0
 26 37  1  0  0  0  0
 27 28  1  0  0  0  0
 27 29  1  0  0  0  0
 29 30  2  0  0  0  0
 29 31  1  0  0  0  0
 31 32  2  0  0  0  0
 31 36  1  0  0  0  0
 32 33  1  0  0  0  0
 32 37  1  0  0  0  0
 33 34  2  0  0  0  0
 34 35  1  0  0  0  0
 35 36  2  0  0  0  0
 37 38  2  0  0  0  0
M  END
>  <DATABASE_ID>
DB15381

>  <DATABASE_NAME>
drugbank

>  <SMILES>
CC(C)=CCC\C(C)=C\CC\C(C)=C\CC\C(C)=C\CC\C(C)=C\CC1=C(C)C(=O)C2=C(C=CC=C2)C1=O

>  <INCHI_IDENTIFIER>
InChI=1S/C36H48O2/c1-26(2)14-10-15-27(3)16-11-17-28(4)18-12-19-29(5)20-13-21-30(6)24-25-32-31(7)35(37)33-22-8-9-23-34(33)36(32)38/h8-9,14,16,18,20,22-24H,10-13,15,17,19,21,25H2,1-7H3/b27-16+,28-18+,29-20+,30-24+

>  <INCHI_KEY>
HYPYXGZDOYTYDR-HAJWAVTHSA-N

>  <FORMULA>
C36H48O2

>  <MOLECULAR_WEIGHT>
512.778

>  <EXACT_MASS>
512.365430786

>  <JCHEM_ACCEPTOR_COUNT>
2

>  <JCHEM_ATOM_COUNT>
86

>  <JCHEM_AVERAGE_POLARIZABILITY>
64.90460407605781

>  <JCHEM_BIOAVAILABILITY>
0

>  <JCHEM_DONOR_COUNT>
0

>  <JCHEM_FORMAL_CHARGE>
0

>  <JCHEM_GHOSE_FILTER>
0

>  <JCHEM_IUPAC>
2-methyl-3-[(2E,6E,10E,14E)-3,7,11,15,19-pentamethylicosa-2,6,10,14,18-pentaen-1-yl]-1,4-dihydronaphthalene-1,4-dione

>  <ALOGPS_LOGP>
8.19

>  <JCHEM_LOGP>
10.139421639333332

>  <ALOGPS_LOGS>
-6.19

>  <JCHEM_MDDR_LIKE_RULE>
0

>  <JCHEM_NUMBER_OF_RINGS>
2

>  <JCHEM_PHYSIOLOGICAL_CHARGE>
0

>  <JCHEM_PKA_STRONGEST_BASIC>
-7.224343414413889

>  <JCHEM_POLAR_SURFACE_AREA>
34.14

>  <JCHEM_REFRACTIVITY>
169.30939999999998

>  <JCHEM_ROTATABLE_BOND_COUNT>
14

>  <JCHEM_RULE_OF_FIVE>
0

>  <ALOGPS_SOLUBILITY>
3.28e-04 g/l

>  <JCHEM_TRADITIONAL_IUPAC>
(2R)-14-fluoro-2-methyl-6,9,10,19-tetraazapentacyclo[14.2.1.0^{2,6}.0^{8,18}.0^{12,17}]nonadeca-1(18),8,12(17),13,15-pentaen-11-one

>  <JCHEM_VEBER_RULE>
0

>  <DRUGBANK_ID>
DB15381

>  <DRUG_GROUPS>
investigational

>  <GENERIC_NAME>
Menaquinone

$$$$

 OpenBabel05042401512D

 26 28  0  0  1  0  0  0  0  0999 V2000
   -0.8125   -3.4433    0.0000 C   0  0  0  0  0  0  0  0  0  0  0  0
   -0.2822   -4.0752    0.0000 C   0  0  1  0  0  0  0  0  0  0  0  0
    0.4323   -4.4877    0.0000 C   0  0  0  0  0  0  0  0  0  0  0  0
    0.4323   -5.3127    0.0000 C   0  0  0  0  0  0  0  0  0  0  0  0
   -0.2822   -5.7252    0.0000 S   0  0  0  0  0  0  0  0  0  0  0  0
   -0.9966   -5.3127    0.0000 C   0  0  0  0  0  0  0  0  0  0  0  0
   -1.7111   -5.7252    0.0000 N   0  0  0  0  0  0  0  0  0  0  0  0
   -0.9966   -4.4877    0.0000 N   0  0  0  0  0  0  0  0  0  0  0  0
    0.2481   -3.4433    0.0000 C   0  0  0  0  0  0  0  0  0  0  0  0
   -0.0340   -2.6680    0.0000 C   0  0  0  0  0  0  0  0  0  0  0  0
    0.4963   -2.0360    0.0000 C   0  0  0  0  0  0  0  0  0  0  0  0
    0.2141   -1.2608    0.0000 N   0  0  0  0  0  0  0  0  0  0  0  0
   -0.5984   -1.1175    0.0000 C   0  0  0  0  0  0  0  0  0  0  0  0
   -1.1287   -1.7495    0.0000 O   0  0  0  0  0  0  0  0  0  0  0  0
   -0.8805   -0.3423    0.0000 C   0  0  0  0  0  0  0  0  0  0  0  0
   -1.6930   -0.1990    0.0000 N   0  0  0  0  0  0  0  0  0  0  0  0
   -1.9752    0.5762    0.0000 C   0  0  0  0  0  0  0  0  0  0  0  0
   -1.4449    1.2082    0.0000 C   0  0  0  0  0  0  0  0  0  0  0  0
   -0.6324    1.0650    0.0000 C   0  0  0  0  0  0  0  0  0  0  0  0
   -0.3502    0.2897    0.0000 C   0  0  0  0  0  0  0  0  0  0  0  0
   -1.7270    1.9835    0.0000 C   0  0  0  0  0  0  0  0  0  0  0  0
   -2.0092    2.7587    0.0000 N   0  0  0  0  0  0  0  0  0  0  0  0
    1.3087   -2.1793    0.0000 C   0  0  0  0  0  0  0  0  0  0  0  0
    1.5909   -2.9545    0.0000 C   0  0  0  0  0  0  0  0  0  0  0  0
    1.0606   -3.5865    0.0000 C   0  0  0  0  0  0  0  0  0  0  0  0
    1.3428   -4.3618    0.0000 F   0  0  0  0  0  0  0  0  0  0  0  0
  2  1  1  1  0  0  0
  2  3  1  0  0  0  0
  2  8  1  0  0  0  0
  2  9  1  0  0  0  0
  3  4  2  0  0  0  0
  4  5  1  0  0  0  0
  5  6  1  0  0  0  0
  6  7  1  0  0  0  0
  6  8  2  0  0  0  0
  9 10  2  0  0  0  0
  9 25  1  0  0  0  0
 10 11  1  0  0  0  0
 11 12  1  0  0  0  0
 11 23  2  0  0  0  0
 12 13  1  0  0  0  0
 13 14  2  0  0  0  0
 13 15  1  0  0  0  0
 15 16  2  0  0  0  0
 15 20  1  0  0  0  0
 16 17  1  0  0  0  0
 17 18  2  0  0  0  0
 18 19  1  0  0  0  0
 18 21  1  0  0  0  0
 19 20  2  0  0  0  0
 21 22  3  0  0  0  0
 23 24  1  0  0  0  0
 24 25  2  0  0  0  0
 25 26  1  0  0  0  0
M  END
>  <DATABASE_ID>
DB15307

>  <DATABASE_NAME>
drugbank

>  <SMILES>
C[C@]1(C=CSC(N)=N1)C1=CC(NC(=O)C2=NC=C(C=C2)C#N)=CC=C1F

>  <INCHI_IDENTIFIER>
InChI=1S/C18H14FN5OS/c1-18(6-7-26-17(21)24-18)13-8-12(3-4-14(13)19)23-16(25)15-5-2-11(9-20)10-22-15/h2-8,10H,1H3,(H2,21,24)(H,23,25)/t18-/m0/s1

>  <INCHI_KEY>
VLLFGVHGKLDDLW-SFHVURJKSA-N

>  <FORMULA>
C18H14FN5OS

>  <MOLECULAR_WEIGHT>
367.4

>  <EXACT_MASS>
367.090309428

>  <JCHEM_ACCEPTOR_COUNT>
5

>  <JCHEM_ATOM_COUNT>
40

>  <JCHEM_AVERAGE_POLARIZABILITY>
36.63915118291146

>  <JCHEM_BIOAVAILABILITY>
1

>  <JCHEM_DONOR_COUNT>
2

>  <JCHEM_FORMAL_CHARGE>
0

>  <JCHEM_GHOSE_FILTER>
1

>  <JCHEM_IUPAC>
N-{3-[(4S)-2-amino-4-methyl-4H-1,3-thiazin-4-yl]-4-fluorophenyl}-5-cyanopyridine-2-carboxamide

>  <ALOGPS_LOGP>
2.48

>  <JCHEM_LOGP>
2.7018906960000004

>  <ALOGPS_LOGS>
-4.34

>  <JCHEM_MDDR_LIKE_RULE>
0

>  <JCHEM_NUMBER_OF_RINGS>
3

>  <JCHEM_PHYSIOLOGICAL_CHARGE>
1

>  <JCHEM_PKA_STRONGEST_ACIDIC>
13.921844382634335

>  <JCHEM_PKA_STRONGEST_BASIC>
7.1315427978357

>  <JCHEM_POLAR_SURFACE_AREA>
104.16

>  <JCHEM_REFRACTIVITY>
100.44480000000001

>  <JCHEM_ROTATABLE_BOND_COUNT>
3

>  <JCHEM_RULE_OF_FIVE>
1

>  <ALOGPS_SOLUBILITY>
1.70e-02 g/l

>  <JCHEM_TRADITIONAL_IUPAC>
(2R)-14-fluoro-2-methyl-6,9,10,19-tetraazapentacyclo[14.2.1.0^{2,6}.0^{8,18}.0^{12,17}]nonadeca-1(18),8,12(17),13,15-pentaen-11-one

>  <JCHEM_VEBER_RULE>
0

>  <DRUGBANK_ID>
DB15307

>  <DRUG_GROUPS>
investigational

>  <GENERIC_NAME>
Atabecestat

>  <SYNONYMS>
Atabecestat; JNJ-54861911

$$$$

 OpenBabel05042401512D

 31 34  0  0  1  0  0  0  0  0999 V2000
   -0.4366   -0.0605    0.0000 C   0  0  0  0  0  0  0  0  0  0  0  0
    0.2779   -0.4730    0.0000 C   0  0  0  0  0  0  0  0  0  0  0  0
    0.9923   -0.0605    0.0000 C   0  0  0  0  0  0  0  0  0  0  0  0
    0.2779   -1.2980    0.0000 N   0  0  0  0  0  0  0  0  0  0  0  0
    0.9923   -1.7105    0.0000 C   0  0  0  0  0  0  0  0  0  0  0  0
    0.9923   -2.5355    0.0000 C   0  0  0  0  0  0  0  0  0  0  0  0
    0.2779   -2.9480    0.0000 C   0  0  0  0  0  0  0  0  0  0  0  0
   -0.4366   -2.5355    0.0000 C   0  0  0  0  0  0  0  0  0  0  0  0
   -0.4366   -1.7105    0.0000 C   0  0  0  0  0  0  0  0  0  0  0  0
    0.2779   -3.7730    0.0000 N   0  0  3  0  0  0  0  0  0  0  0  0
    1.0212   -4.1310    0.0000 C   0  0  0  0  0  0  0  0  0  0  0  0
    1.2047   -4.9353    0.0000 C   0  0  0  0  0  0  0  0  0  0  0  0
    0.6904   -5.5803    0.0000 C   0  0  0  0  0  0  0  0  0  0  0  0
   -0.1346   -5.5803    0.0000 N   0  0  0  0  0  0  0  0  0  0  0  0
   -0.6490   -4.9353    0.0000 C   0  0  0  0  0  0  0  0  0  0  0  0
   -0.4654   -4.1310    0.0000 C   0  0  0  0  0  0  0  0  0  0  0  0
   -0.4926   -6.3236    0.0000 C   0  0  0  0  0  0  0  0  0  0  0  0
   -0.0279   -7.0052    0.0000 C   0  0  0  0  0  0  0  0  0  0  0  0
   -0.3858   -7.7485    0.0000 C   0  0  0  0  0  0  0  0  0  0  0  0
   -1.2085   -7.8102    0.0000 C   0  0  0  0  0  0  0  0  0  0  0  0
   -1.6732   -7.1285    0.0000 C   0  0  0  0  0  0  0  0  0  0  0  0
   -1.3153   -6.3852    0.0000 N   0  0  0  0  0  0  0  0  0  0  0  0
   -2.4959   -7.1902    0.0000 C   0  0  0  0  0  0  0  0  0  0  0  0
   -2.9607   -6.5085    0.0000 O   0  0  0  0  0  0  0  0  0  0  0  0
   -2.8539   -7.9335    0.0000 N   0  0  0  0  0  0  0  0  0  0  0  0
   -3.6766   -7.9951    0.0000 C   0  0  0  0  0  0  0  0  0  0  0  0
   -4.0345   -8.7384    0.0000 C   0  0  0  0  0  0  0  0  0  0  0  0
   -4.8572   -8.8001    0.0000 C   0  0  0  0  0  0  0  0  0  0  0  0
   -5.3220   -8.1185    0.0000 N   0  0  0  0  0  0  0  0  0  0  0  0
   -4.9640   -7.3752    0.0000 C   0  0  0  0  0  0  0  0  0  0  0  0
   -4.1413   -7.3135    0.0000 C   0  0  0  0  0  0  0  0  0  0  0  0
  1  2  1  0  0  0  0
  2  3  1  0  0  0  0
  2  4  1  0  0  0  0
  4  5  1  0  0  0  0
  4  9  1  0  0  0  0
  5  6  1  0  0  0  0
  6  7  1  0  0  0  0
  7  8  1  0  0  0  0
  7 10  1  0  0  0  0
  8  9  1  0  0  0  0
 10 11  1  0  0  0  0
 10 16  1  0  0  0  0
 11 12  1  0  0  0  0
 12 13  1  0  0  0  0
 13 14  1  0  0  0  0
 14 15  1  0  0  0  0
 14 17  1  0  0  0  0
 15 16  1  0  0  0  0
 17 18  2  0  0  0  0
 17 22  1  0  0  0  0
 18 19  1  0  0  0  0
 19 20  2  0  0  0  0
 20 21  1  0  0  0  0
 21 22  2  0  0  0  0
 21 23  1  0  0  0  0
 23 24  2  0  0  0  0
 23 25  1  0  0  0  0
 25 26  1  0  0  0  0
 26 27  2  0  0  0  0
 26 31  1  0  0  0  0
 27 28  1  0  0  0  0
 28 29  2  0  0  0  0
 29 30  1  0  0  0  0
 30 31  2  0  0  0  0
M  END
>  <DATABASE_ID>
DB15265

>  <DATABASE_NAME>
drugbank

>  <SMILES>
CC(C)N1CCC(CC1)N1CCCN(CC1)C1=CC=CC(=N1)C(=O)NC1=CC=NC=C1

>  <INCHI_IDENTIFIER>
InChI=1S/C24H34N6O/c1-19(2)28-15-9-21(10-16-28)29-13-4-14-30(18-17-29)23-6-3-5-22(27-23)24(31)26-20-7-11-25-12-8-20/h3,5-8,11-12,19,21H,4,9-10,13-18H2,1-2H3,(H,25,26,31)

>  <INCHI_KEY>
XNUNVQKARNSSEO-UHFFFAOYSA-N

>  <FORMULA>
C24H34N6O

>  <MOLECULAR_WEIGHT>
422.577

>  <EXACT_MASS>
422.279409739

>  <JCHEM_ACCEPTOR_COUNT>
6

>  <JCHEM_ATOM_COUNT>
65

>  <JCHEM_AVERAGE_POLARIZABILITY>
47.611929017613534

>  <JCHEM_BIOAVAILABILITY>
1

>  <JCHEM_DONOR_COUNT>
1

>  <JCHEM_FORMAL_CHARGE>
0

>  <JCHEM_GHOSE_FILTER>
1

>  <JCHEM_IUPAC>
6-{4-[1-(propan-2-yl)piperidin-4-yl]-1,4-diazepan-1-yl}-N-(pyridin-4-yl)pyridine-2-carboxamide

>  <ALOGPS_LOGP>
3.23

>  <JCHEM_LOGP>
2.4254059063333333

>  <ALOGPS_LOGS>
-3.60

>  <JCHEM_MDDR_LIKE_RULE>
0

>  <JCHEM_NUMBER_OF_RINGS>
4

>  <JCHEM_PHYSIOLOGICAL_CHARGE>
2

>  <JCHEM_PKA_STRONGEST_ACIDIC>
14.503338448139338

>  <JCHEM_PKA_STRONGEST_BASIC>
9.516385697404868

>  <JCHEM_POLAR_SURFACE_AREA>
64.6

>  <JCHEM_REFRACTIVITY>
127.1818

>  <JCHEM_ROTATABLE_BOND_COUNT>
5

>  <JCHEM_RULE_OF_FIVE>
1

>  <ALOGPS_SOLUBILITY>
1.07e-01 g/l

>  <JCHEM_TRADITIONAL_IUPAC>
(2R)-14-fluoro-2-methyl-6,9,10,19-tetraazapentacyclo[14.2.1.0^{2,6}.0^{8,18}.0^{12,17}]nonadeca-1(18),8,12(17),13,15-pentaen-11-one

>  <JCHEM_VEBER_RULE>
0

>  <DRUGBANK_ID>
DB15265

>  <DRUG_GROUPS>
investigational

>  <GENERIC_NAME>
USL-311

>  <SYNONYMS>
2-Pyridinecarboxamide, 6-(hexahydro-4-(1-(1-methylethyl)-4-piperidinyl)-1H-1,4-diazepin-1-yl)-N-4-pyridinyl-; 6-[4-(1-propan-2-ylpiperidin-4-yl)-1,4-diazepan-1-yl]-N-pyridin-4-ylpyridine-2-carboxamide; 6-{4-[l-(propan-2-yl)piperidin-4-yl]-1,4-diazepan-1-yl}-N-(pyridin-4-yl)pyridine-2-carboxamide

$$$$

 OpenBabel05042401512D

 43 43  0  0  1  0  0  0  0  0999 V2000
    6.4302   -1.4437    0.0000 C   0  0  0  0  0  0  0  0  0  0  0  0
    5.0013   -1.4437    0.0000 C   0  0  0  0  0  0  0  0  0  0  0  0
    4.2868   -1.0312    0.0000 C   0  0  0  0  0  0  0  0  0  0  0  0
    3.5723   -1.4437    0.0000 C   0  0  0  0  0  0  0  0  0  0  0  0
    2.8578   -1.0312    0.0000 C   0  0  1  0  0  0  0  0  0  0  0  0
    2.8578   -0.2062    0.0000 C   0  0  0  0  0  0  0  0  0  0  0  0
    1.4289   -1.0312    0.0000 C   0  0  0  0  0  0  0  0  0  0  0  0
    0.7144   -1.4437    0.0000 C   0  0  2  0  0  0  0  0  0  0  0  0
    0.7144   -2.2687    0.0000 C   0  0  0  0  0  0  0  0  0  0  0  0
    0.0000   -2.6812    0.0000 C   0  0  0  0  0  0  0  0  0  0  0  0
    1.4289   -2.6812    0.0000 C   0  0  0  0  0  0  0  0  0  0  0  0
   -0.7144   -1.4437    0.0000 C   0  0  0  0  0  0  0  0  0  0  0  0
   -1.4289   -1.0312    0.0000 C   0  0  2  0  0  0  0  0  0  0  0  0
   -1.4289   -0.2062    0.0000 C   0  0  0  0  0  0  0  0  0  0  0  0
   -0.7144    0.2062    0.0000 C   0  0  0  0  0  0  0  0  0  0  0  0
   -0.7144    1.0312    0.0000 C   0  0  0  0  0  0  0  0  0  0  0  0
    0.0000    2.2687    0.0000 C   0  0  0  0  0  0  0  0  0  0  0  0
   -2.8578   -1.0312    0.0000 C   0  0  0  0  0  0  0  0  0  0  0  0
   -4.2868   -1.0312    0.0000 C   0  0  2  0  0  0  0  0  0  0  0  0
   -4.2868   -0.2062    0.0000 C   0  0  0  0  0  0  0  0  0  0  0  0
   -5.0012   -1.4437    0.0000 C   0  0  0  0  0  0  0  0  0  0  0  0
   -5.7157   -1.0312    0.0000 C   0  0  0  0  0  0  0  0  0  0  0  0
   -6.4302   -1.4437    0.0000 C   0  0  0  0  0  0  0  0  0  0  0  0
   -7.1447   -1.0312    0.0000 C   0  0  0  0  0  0  0  0  0  0  0  0
   -7.1447   -0.2062    0.0000 C   0  0  0  0  0  0  0  0  0  0  0  0
   -6.4302    0.2062    0.0000 C   0  0  0  0  0  0  0  0  0  0  0  0
   -5.7157   -0.2062    0.0000 C   0  0  0  0  0  0  0  0  0  0  0  0
    2.1434   -1.4437    0.0000 N   0  0  0  0  0  0  0  0  0  0  0  0
    0.0000   -1.0312    0.0000 N   0  0  0  0  0  0  0  0  0  0  0  0
    0.0000    1.4437    0.0000 N   0  0  0  0  0  0  0  0  0  0  0  0
   -0.7144    2.6812    0.0000 N   0  0  0  0  0  0  0  0  0  0  0  0
    0.7144    2.6812    0.0000 N   0  0  0  0  0  0  0  0  0  0  0  0
   -2.1434   -1.4437    0.0000 N   0  0  0  0  0  0  0  0  0  0  0  0
   -3.5723   -1.4437    0.0000 N   0  0  0  0  0  0  0  0  0  0  0  0
    5.7157   -1.0312    0.0000 N   0  0  0  0  0  0  0  0  0  0  0  0
    7.1447   -1.0312    0.0000 N   0  0  0  0  0  0  0  0  0  0  0  0
    6.4302   -2.2687    0.0000 N   0  0  0  0  0  0  0  0  0  0  0  0
    2.1434    0.2062    0.0000 O   0  0  0  0  0  0  0  0  0  0  0  0
    1.4289   -0.2062    0.0000 O   0  0  0  0  0  0  0  0  0  0  0  0
   -0.7144   -2.2687    0.0000 O   0  0  0  0  0  0  0  0  0  0  0  0
   -2.8578   -0.2062    0.0000 O   0  0  0  0  0  0  0  0  0  0  0  0
   -3.5723    0.2062    0.0000 O   0  0  0  0  0  0  0  0  0  0  0  0
   -5.0012    0.2062    0.0000 O   0  0  0  0  0  0  0  0  0  0  0  0
  1 35  1  0  0  0  0
  1 36  1  0  0  0  0
  1 37  2  0  0  0  0
  2  3  1  0  0  0  0
  2 35  1  0  0  0  0
  3  4  1  0  0  0  0
  5  4  1  6  0  0  0
  5  6  1  0  0  0  0
  5 28  1  0  0  0  0
  6 38  2  0  0  0  0
  7 28  1  0  0  0  0
  7 39  2  0  0  0  0
  8  7  1  6  0  0  0
  8  9  1  0  0  0  0
  8 29  1  0  0  0  0
  9 10  1  0  0  0  0
  9 11  1  0  0  0  0
 12 29  1  0  0  0  0
 12 40  2  0  0  0  0
 13 12  1  1  0  0  0
 13 14  1  0  0  0  0
 13 33  1  0  0  0  0
 14 15  1  0  0  0  0
 15 16  1  0  0  0  0
 16 30  1  0  0  0  0
 17 30  1  0  0  0  0
 17 31  1  0  0  0  0
 17 32  2  0  0  0  0
 18 33  1  0  0  0  0
 18 34  1  0  0  0  0
 18 41  2  0  0  0  0
 19 20  1  1  0  0  0
 19 21  1  0  0  0  0
 19 34  1  0  0  0  0
 20 42  2  0  0  0  0
 20 43  1  0  0  0  0
 21 22  1  0  0  0  0
 22 23  2  0  0  0  0
 22 27  1  0  0  0  0
 23 24  1  0  0  0  0
 24 25  2  0  0  0  0
 25 26  1  0  0  0  0
 26 27  2  0  0  0  0
M  END
>  <DATABASE_ID>
DB15251

>  <DATABASE_NAME>
drugbank

>  <SMILES>
CC(C)[C@H](NC(=O)[C@H](CCCNC(N)=N)NC(=O)N[C@@H](CC1=CC=CC=C1)C(O)=O)C(=O)N[C@@H](CCCNC(N)=N)C=O

>  <INCHI_IDENTIFIER>
InChI=1S/C27H44N10O6/c1-16(2)21(23(40)34-18(15-38)10-6-12-32-25(28)29)37-22(39)19(11-7-13-33-26(30)31)35-27(43)36-20(24(41)42)14-17-8-4-3-5-9-17/h3-5,8-9,15-16,18-21H,6-7,10-14H2,1-2H3,(H,34,40)(H,37,39)(H,41,42)(H4,28,29,32)(H4,30,31,33)(H2,35,36,43)/t18-,19-,20-,21-/m0/s1

>  <INCHI_KEY>
SDNYTAYICBFYFH-TUFLPTIASA-N

>  <FORMULA>
C27H44N10O6

>  <MOLECULAR_WEIGHT>
604.713

>  <EXACT_MASS>
604.344529177

>  <JCHEM_ACCEPTOR_COUNT>
12

>  <JCHEM_ATOM_COUNT>
87

>  <JCHEM_AVERAGE_POLARIZABILITY>
63.74360731641443

>  <JCHEM_BIOAVAILABILITY>
0

>  <JCHEM_DONOR_COUNT>
11

>  <JCHEM_FORMAL_CHARGE>
0

>  <JCHEM_GHOSE_FILTER>
0

>  <JCHEM_IUPAC>
(2S)-2-({[(1S)-4-carbamimidamido-1-{[(1S)-1-{[(2S)-5-carbamimidamido-1-oxopentan-2-yl]carbamoyl}-2-methylpropyl]carbamoyl}butyl]carbamoyl}amino)-3-phenylpropanoic acid

>  <ALOGPS_LOGP>
-0.73

>  <JCHEM_LOGP>
-3.446459189275674

>  <ALOGPS_LOGS>
-3.86

>  <JCHEM_MDDR_LIKE_RULE>
0

>  <JCHEM_NUMBER_OF_RINGS>
1

>  <JCHEM_PHYSIOLOGICAL_CHARGE>
1

>  <JCHEM_PKA>
12.48026022064404

>  <JCHEM_PKA_STRONGEST_ACIDIC>
3.4238754670577407

>  <JCHEM_PKA_STRONGEST_BASIC>
12.05391994207608

>  <JCHEM_POLAR_SURFACE_AREA>
277.5

>  <JCHEM_REFRACTIVITY>
178.22860000000009

>  <JCHEM_ROTATABLE_BOND_COUNT>
19

>  <JCHEM_RULE_OF_FIVE>
0

>  <ALOGPS_SOLUBILITY>
8.35e-02 g/l

>  <JCHEM_TRADITIONAL_IUPAC>
elamipretide

>  <JCHEM_VEBER_RULE>
0

>  <DRUGBANK_ID>
DB15251

>  <DRUG_GROUPS>
experimental

>  <GENERIC_NAME>
Antipain

$$$$

 OpenBabel05042401512D

 36 36  0  0  1  0  0  0  0  0999 V2000
    0.7144    0.4124    0.0000 N   0  0  0  0  0  0  0  0  0  0  0  0
    0.0000    0.8249    0.0000 C   0  0  0  0  0  0  0  0  0  0  0  0
   -0.7144    0.4124    0.0000 C   0  0  0  0  0  0  0  0  0  0  0  0
   -0.7145   -0.4125    0.0000 N   0  0  0  0  0  0  0  0  0  0  0  0
    0.0000   -0.8250    0.0000 C   0  0  0  0  0  0  0  0  0  0  0  0
    0.7144   -0.4125    0.0000 C   0  0  0  0  0  0  0  0  0  0  0  0
    1.4289    0.8249    0.0000 C   0  0  0  0  0  0  0  0  0  0  0  0
    2.1434    0.4124    0.0000 C   0  0  0  0  0  0  0  0  0  0  0  0
    2.8578    0.8249    0.0000 C   0  0  0  0  0  0  0  0  0  0  0  0
    3.5723    0.4124    0.0000 N   0  0  0  0  0  0  0  0  0  0  0  0
    4.2868    0.8249    0.0000 C   0  0  0  0  0  0  0  0  0  0  0  0
    5.0012    0.4124    0.0000 C   0  0  1  0  0  0  0  0  0  0  0  0
    4.2868    1.6499    0.0000 O   0  0  0  0  0  0  0  0  0  0  0  0
    5.7157    0.8249    0.0000 N   0  0  0  0  0  0  0  0  0  0  0  0
    5.0012   -0.4125    0.0000 C   0  0  0  0  0  0  0  0  0  0  0  0
    5.7157   -0.8250    0.0000 C   0  0  0  0  0  0  0  0  0  0  0  0
    5.7157   -1.6500    0.0000 C   0  0  0  0  0  0  0  0  0  0  0  0
    6.4302   -2.0625    0.0000 N   0  0  0  0  0  0  0  0  0  0  0  0
    6.4302   -2.8875    0.0000 C   0  0  0  0  0  0  0  0  0  0  0  0
    7.1447   -3.3000    0.0000 N   0  0  0  0  0  0  0  0  0  0  0  0
    5.7157   -3.3000    0.0000 N   0  0  0  0  0  0  0  0  0  0  0  0
   -1.4289   -0.8250    0.0000 C   0  0  0  0  0  0  0  0  0  0  0  0
   -2.1434   -0.4125    0.0000 C   0  0  0  0  0  0  0  0  0  0  0  0
   -2.8579   -0.8250    0.0000 C   0  0  0  0  0  0  0  0  0  0  0  0
   -3.5723   -0.4125    0.0000 N   0  0  0  0  0  0  0  0  0  0  0  0
   -4.2868   -0.8250    0.0000 C   0  0  0  0  0  0  0  0  0  0  0  0
   -5.0013   -0.4125    0.0000 C   0  0  1  0  0  0  0  0  0  0  0  0
   -4.2868   -1.6500    0.0000 O   0  0  0  0  0  0  0  0  0  0  0  0
   -5.7158   -0.8250    0.0000 N   0  0  0  0  0  0  0  0  0  0  0  0
   -5.0013    0.4124    0.0000 C   0  0  0  0  0  0  0  0  0  0  0  0
   -5.7158    0.8249    0.0000 C   0  0  0  0  0  0  0  0  0  0  0  0
   -5.7158    1.6499    0.0000 C   0  0  0  0  0  0  0  0  0  0  0  0
   -6.4302    2.0624    0.0000 N   0  0  0  0  0  0  0  0  0  0  0  0
   -6.4302    2.8874    0.0000 C   0  0  0  0  0  0  0  0  0  0  0  0
   -7.1447    3.3000    0.0000 N   0  0  0  0  0  0  0  0  0  0  0  0
   -5.7158    3.3000    0.0000 N   0  0  0  0  0  0  0  0  0  0  0  0
  1  2  1  0  0  0  0
  1  7  1  0  0  0  0
  2  3  1  0  0  0  0
  3  4  1  0  0  0  0
  4  5  1  0  0  0  0
  4 22  1  0  0  0  0
  5  6  1  0  0  0  0
  6  1  1  0  0  0  0
  7  8  1  0  0  0  0
  8  9  1  0  0  0  0
  9 10  1  0  0  0  0
 10 11  1  0  0  0  0
 11 13  2  0  0  0  0
 12 11  1  1  0  0  0
 12 14  1  0  0  0  0
 12 15  1  0  0  0  0
 15 16  1  0  0  0  0
 16 17  1  0  0  0  0
 17 18  1  0  0  0  0
 18 19  1  0  0  0  0
 19 20  1  0  0  0  0
 19 21  2  0  0  0  0
 22 23  1  0  0  0  0
 23 24  1  0  0  0  0
 24 25  1  0  0  0  0
 25 26  1  0  0  0  0
 26 28  2  0  0  0  0
 27 26  1  1  0  0  0
 27 29  1  0  0  0  0
 27 30  1  0  0  0  0
 30 31  1  0  0  0  0
 31 32  1  0  0  0  0
 32 33  1  0  0  0  0
 33 34  1  0  0  0  0
 34 35  1  0  0  0  0
 34 36  2  0  0  0  0
M  END
>  <DATABASE_ID>
DB15199

>  <DATABASE_NAME>
drugbank

>  <SMILES>
N[C@@H](CCCNC(N)=N)C(=O)NCCCN1CCN(CCCNC(=O)[C@@H](N)CCCNC(N)=N)CC1

>  <INCHI_IDENTIFIER>
InChI=1S/C22H48N12O2/c23-17(5-1-7-31-21(25)26)19(35)29-9-3-11-33-13-15-34(16-14-33)12-4-10-30-20(36)18(24)6-2-8-32-22(27)28/h17-18H,1-16,23-24H2,(H,29,35)(H,30,36)(H4,25,26,31)(H4,27,28,32)/t17-,18-/m0/s1

>  <INCHI_KEY>
HRDUUSCYRPOMSO-ROUUACIJSA-N

>  <FORMULA>
C22H48N12O2

>  <MOLECULAR_WEIGHT>
512.708

>  <EXACT_MASS>
512.402318834

>  <JCHEM_ACCEPTOR_COUNT>
12

>  <JCHEM_ATOM_COUNT>
84

>  <JCHEM_AVERAGE_POLARIZABILITY>
59.69565775192678

>  <JCHEM_BIOAVAILABILITY>
0

>  <JCHEM_DONOR_COUNT>
10

>  <JCHEM_FORMAL_CHARGE>
0

>  <JCHEM_GHOSE_FILTER>
0

>  <JCHEM_IUPAC>
(2S)-2-amino-N-[3-(4-{3-[(2S)-2-amino-5-carbamimidamidopentanamido]propyl}piperazin-1-yl)propyl]-5-carbamimidamidopentanamide

>  <ALOGPS_LOGP>
-1.63

>  <JCHEM_LOGP>
-4.330277297333333

>  <ALOGPS_LOGS>
-3.43

>  <JCHEM_MDDR_LIKE_RULE>
0

>  <JCHEM_NUMBER_OF_RINGS>
1

>  <JCHEM_PHYSIOLOGICAL_CHARGE>
5

>  <JCHEM_PKA_STRONGEST_BASIC>
12.505220212154937

>  <JCHEM_POLAR_SURFACE_AREA>
240.52

>  <JCHEM_REFRACTIVITY>
163.11499999999998

>  <JCHEM_ROTATABLE_BOND_COUNT>
18

>  <JCHEM_RULE_OF_FIVE>
0

>  <ALOGPS_SOLUBILITY>
1.90e-01 g/l

>  <JCHEM_TRADITIONAL_IUPAC>
(2S)-N-[(5aR,6aS,7S,10aS)-9-carbamoyl-7-(dimethylamino)-4-fluoro-1,8,10a,11-tetrahydroxy-10,12-dioxo-5a,6,6a,7-tetrahydro-5H-tetracen-2-yl]-1-methylpyrrolidine-2-carboxamide

>  <JCHEM_VEBER_RULE>
0

>  <DRUGBANK_ID>
DB15199

>  <DRUG_GROUPS>
investigational

>  <GENERIC_NAME>
Ciraparantag

>  <SYNONYMS>
Ciraparantag; Ciraparantagum

$$$$

 OpenBabel05042401512D

 29 32  0  0  0  0  0  0  0  0999 V2000
    0.7145    2.0625    0.0000 O   0  0  0  0  0  0  0  0  0  0  0  0
    0.7145    1.2375    0.0000 C   0  0  0  0  0  0  0  0  0  0  0  0
    1.4289    0.8250    0.0000 O   0  0  0  0  0  0  0  0  0  0  0  0
    0.0000    0.8250    0.0000 C   0  0  0  0  0  0  0  0  0  0  0  0
    0.0000   -0.0000    0.0000 C   0  0  0  0  0  0  0  0  0  0  0  0
   -0.7145   -0.4125    0.0000 N   0  0  0  0  0  0  0  0  0  0  0  0
   -0.7145   -1.2375    0.0000 N   0  0  0  0  0  0  0  0  0  0  0  0
   -1.4289   -1.6500    0.0000 C   0  0  0  0  0  0  0  0  0  0  0  0
   -1.4289   -2.4750    0.0000 C   0  0  0  0  0  0  0  0  0  0  0  0
   -2.0964   -2.9599    0.0000 N   0  0  0  0  0  0  0  0  0  0  0  0
   -1.8414   -3.7445    0.0000 C   0  0  0  0  0  0  0  0  0  0  0  0
   -1.0164   -3.7445    0.0000 C   0  0  0  0  0  0  0  0  0  0  0  0
   -0.7615   -2.9599    0.0000 S   0  0  0  0  0  0  0  0  0  0  0  0
   -0.6039   -4.4590    0.0000 C   0  0  0  0  0  0  0  0  0  0  0  0
   -1.0164   -5.1735    0.0000 C   0  0  0  0  0  0  0  0  0  0  0  0
   -1.8414   -5.1735    0.0000 C   0  0  0  0  0  0  0  0  0  0  0  0
   -2.2539   -4.4590    0.0000 C   0  0  0  0  0  0  0  0  0  0  0  0
   -2.2539   -5.8880    0.0000 C   0  0  0  0  0  0  0  0  0  0  0  0
   -2.6664   -6.6024    0.0000 F   0  0  0  0  0  0  0  0  0  0  0  0
   -2.9684   -5.4755    0.0000 F   0  0  0  0  0  0  0  0  0  0  0  0
   -1.5395   -6.3005    0.0000 F   0  0  0  0  0  0  0  0  0  0  0  0
    0.0000   -1.6500    0.0000 C   0  0  0  0  0  0  0  0  0  0  0  0
    0.0000   -2.4750    0.0000 O   0  0  0  0  0  0  0  0  0  0  0  0
    0.7145   -1.2375    0.0000 C   0  0  0  0  0  0  0  0  0  0  0  0
    0.7145   -0.4125    0.0000 C   0  0  0  0  0  0  0  0  0  0  0  0
    1.4289   -0.0000    0.0000 N   0  0  0  0  0  0  0  0  0  0  0  0
    2.1434   -0.4125    0.0000 C   0  0  0  0  0  0  0  0  0  0  0  0
    2.1434   -1.2375    0.0000 C   0  0  0  0  0  0  0  0  0  0  0  0
    1.4289   -1.6500    0.0000 N   0  0  0  0  0  0  0  0  0  0  0  0
  1  2  1  0  0  0  0
  2  3  2  0  0  0  0
  2  4  1  0  0  0  0
  4  5  1  0  0  0  0
  5  6  2  0  0  0  0
  5 25  1  0  0  0  0
  6  7  1  0  0  0  0
  7  8  1  0  0  0  0
  7 22  1  0  0  0  0
  8  9  1  0  0  0  0
  9 10  2  0  0  0  0
  9 13  1  0  0  0  0
 10 11  1  0  0  0  0
 11 12  2  0  0  0  0
 11 17  1  0  0  0  0
 12 13  1  0  0  0  0
 12 14  1  0  0  0  0
 14 15  2  0  0  0  0
 15 16  1  0  0  0  0
 16 17  2  0  0  0  0
 16 18  1  0  0  0  0
 18 19  1  0  0  0  0
 18 20  1  0  0  0  0
 18 21  1  0  0  0  0
 22 23  2  0  0  0  0
 22 24  1  0  0  0  0
 24 25  2  0  0  0  0
 24 29  1  0  0  0  0
 25 26  1  0  0  0  0
 26 27  2  0  0  0  0
 27 28  1  0  0  0  0
 28 29  2  0  0  0  0
M  END
>  <DATABASE_ID>
DB15121

>  <DATABASE_NAME>
drugbank

>  <SMILES>
OC(=O)CC1=NN(CC2=NC3=C(S2)C=CC(=C3)C(F)(F)F)C(=O)C2=C1N=CC=N2

>  <INCHI_IDENTIFIER>
InChI=1S/C17H10F3N5O3S/c18-17(19,20)8-1-2-11-9(5-8)23-12(29-11)7-25-16(28)15-14(21-3-4-22-15)10(24-25)6-13(26)27/h1-5H,6-7H2,(H,26,27)

>  <INCHI_KEY>
YRGPAXAVTDMKDK-UHFFFAOYSA-N

>  <FORMULA>
C17H10F3N5O3S

>  <MOLECULAR_WEIGHT>
421.35

>  <EXACT_MASS>
421.045644865

>  <JCHEM_ACCEPTOR_COUNT>
7

>  <JCHEM_ATOM_COUNT>
39

>  <JCHEM_AVERAGE_POLARIZABILITY>
36.25498228617841

>  <JCHEM_BIOAVAILABILITY>
1

>  <JCHEM_DONOR_COUNT>
1

>  <JCHEM_FORMAL_CHARGE>
0

>  <JCHEM_GHOSE_FILTER>
1

>  <JCHEM_IUPAC>
2-(8-oxo-7-{[5-(trifluoromethyl)-1,3-benzothiazol-2-yl]methyl}-7H,8H-pyrazino[2,3-d]pyridazin-5-yl)acetic acid

>  <ALOGPS_LOGP>
2.05

>  <JCHEM_LOGP>
1.8892752201611014

>  <ALOGPS_LOGS>
-4.97

>  <JCHEM_MDDR_LIKE_RULE>
0

>  <JCHEM_NUMBER_OF_RINGS>
4

>  <JCHEM_PHYSIOLOGICAL_CHARGE>
-1

>  <JCHEM_PKA_STRONGEST_ACIDIC>
3.5809373493547736

>  <JCHEM_PKA_STRONGEST_BASIC>
2.273508825591088

>  <JCHEM_POLAR_SURFACE_AREA>
108.63999999999999

>  <JCHEM_REFRACTIVITY>
93.16329999999999

>  <JCHEM_ROTATABLE_BOND_COUNT>
5

>  <JCHEM_RULE_OF_FIVE>
1

>  <ALOGPS_SOLUBILITY>
4.53e-03 g/l

>  <JCHEM_TRADITIONAL_IUPAC>
(2R)-14-fluoro-2-methyl-6,9,10,19-tetraazapentacyclo[14.2.1.0^{2,6}.0^{8,18}.0^{12,17}]nonadeca-1(18),8,12(17),13,15-pentaen-11-one

>  <JCHEM_VEBER_RULE>
0

>  <DRUGBANK_ID>
DB15121

>  <DRUG_GROUPS>
investigational

>  <GENERIC_NAME>
AT-001

$$$$

 OpenBabel05042401512D

 28 29  0  0  0  0  0  0  0  0999 V2000
    1.4534   -0.7827    0.0000 C   0  0  0  0  0  0  0  0  0  0  0  0
    1.4534   -1.6077    0.0000 N   0  0  0  0  0  0  0  0  0  0  0  0
    0.7389   -2.0202    0.0000 C   0  0  0  0  0  0  0  0  0  0  0  0
    0.0244   -1.6077    0.0000 C   0  0  0  0  0  0  0  0  0  0  0  0
    0.0244   -0.7827    0.0000 O   0  0  0  0  0  0  0  0  0  0  0  0
   -0.6900   -2.0202    0.0000 N   0  0  0  0  0  0  0  0  0  0  0  0
   -1.4045   -1.6077    0.0000 C   0  0  0  0  0  0  0  0  0  0  0  0
   -1.4907   -0.7872    0.0000 N   0  0  0  0  0  0  0  0  0  0  0  0
   -2.2977   -0.6157    0.0000 C   0  0  0  0  0  0  0  0  0  0  0  0
   -2.7102   -1.3301    0.0000 C   0  0  0  0  0  0  0  0  0  0  0  0
   -2.1582   -1.9432    0.0000 S   0  0  0  0  0  0  0  0  0  0  0  0
   -3.5352   -1.3301    0.0000 C   0  0  0  0  0  0  0  0  0  0  0  0
   -3.9477   -0.6157    0.0000 C   0  0  0  0  0  0  0  0  0  0  0  0
   -4.7727   -0.6157    0.0000 O   0  0  0  0  0  0  0  0  0  0  0  0
   -5.1852    0.0988    0.0000 C   0  0  0  0  0  0  0  0  0  0  0  0
   -5.5977    0.8133    0.0000 F   0  0  0  0  0  0  0  0  0  0  0  0
   -5.8997   -0.3137    0.0000 F   0  0  0  0  0  0  0  0  0  0  0  0
   -4.4707    0.5113    0.0000 F   0  0  0  0  0  0  0  0  0  0  0  0
   -3.5352    0.0988    0.0000 C   0  0  0  0  0  0  0  0  0  0  0  0
   -2.7102    0.0988    0.0000 C   0  0  0  0  0  0  0  0  0  0  0  0
    2.1678   -2.0202    0.0000 C   0  0  0  0  0  0  0  0  0  0  0  0
    2.1678   -2.8452    0.0000 O   0  0  0  0  0  0  0  0  0  0  0  0
    2.8823   -1.6077    0.0000 C   0  0  0  0  0  0  0  0  0  0  0  0
    3.5968   -2.0202    0.0000 N   0  0  0  0  0  0  0  0  0  0  0  0
    4.3113   -1.6077    0.0000 C   0  0  0  0  0  0  0  0  0  0  0  0
    4.3113   -0.7827    0.0000 O   0  0  0  0  0  0  0  0  0  0  0  0
    5.0257   -2.0202    0.0000 C   0  0  0  0  0  0  0  0  0  0  0  0
    5.7402   -1.6077    0.0000 N   0  0  0  0  0  0  0  0  0  0  0  0
  1  2  1  0  0  0  0
  2  3  1  0  0  0  0
  2 21  1  0  0  0  0
  3  4  1  0  0  0  0
  4  5  2  0  0  0  0
  4  6  1  0  0  0  0
  6  7  1  0  0  0  0
  7  8  2  0  0  0  0
  7 11  1  0  0  0  0
  8  9  1  0  0  0  0
  9 10  2  0  0  0  0
  9 20  1  0  0  0  0
 10 11  1  0  0  0  0
 10 12  1  0  0  0  0
 12 13  2  0  0  0  0
 13 14  1  0  0  0  0
 13 19  1  0  0  0  0
 14 15  1  0  0  0  0
 15 16  1  0  0  0  0
 15 17  1  0  0  0  0
 15 18  1  0  0  0  0
 19 20  2  0  0  0  0
 21 22  2  0  0  0  0
 21 23  1  0  0  0  0
 23 24  1  0  0  0  0
 24 25  1  0  0  0  0
 25 26  2  0  0  0  0
 25 27  1  0  0  0  0
 27 28  1  0  0  0  0
M  END
>  <DATABASE_ID>
DB15079

>  <DATABASE_NAME>
drugbank

>  <SMILES>
CN(CC(=O)NC1=NC2=C(S1)C=C(OC(F)(F)F)C=C2)C(=O)CNC(=O)CN

>  <INCHI_IDENTIFIER>
InChI=1S/C15H16F3N5O4S/c1-23(13(26)6-20-11(24)5-19)7-12(25)22-14-21-9-3-2-8(4-10(9)28-14)27-15(16,17)18/h2-4H,5-7,19H2,1H3,(H,20,24)(H,21,22,25)

>  <INCHI_KEY>
YBZSGIWIPOUSHY-UHFFFAOYSA-N

>  <FORMULA>
C15H16F3N5O4S

>  <MOLECULAR_WEIGHT>
419.38

>  <EXACT_MASS>
419.087509678

>  <JCHEM_ACCEPTOR_COUNT>
6

>  <JCHEM_ATOM_COUNT>
44

>  <JCHEM_AVERAGE_POLARIZABILITY>
37.38170431706688

>  <JCHEM_BIOAVAILABILITY>
1

>  <JCHEM_DONOR_COUNT>
3

>  <JCHEM_FORMAL_CHARGE>
0

>  <JCHEM_GHOSE_FILTER>
1

>  <JCHEM_IUPAC>
2-amino-N-{[methyl({[6-(trifluoromethoxy)-1,3-benzothiazol-2-yl]carbamoyl}methyl)carbamoyl]methyl}acetamide

>  <ALOGPS_LOGP>
0.91

>  <JCHEM_LOGP>
-0.04234940738773838

>  <ALOGPS_LOGS>
-4.59

>  <JCHEM_MDDR_LIKE_RULE>
0

>  <JCHEM_NUMBER_OF_RINGS>
2

>  <JCHEM_PHYSIOLOGICAL_CHARGE>
1

>  <JCHEM_PKA>
12.111849545929923

>  <JCHEM_PKA_STRONGEST_ACIDIC>
7.5012005014481185

>  <JCHEM_PKA_STRONGEST_BASIC>
8.10607924185062

>  <JCHEM_POLAR_SURFACE_AREA>
126.64999999999999

>  <JCHEM_REFRACTIVITY>
88.39869999999999

>  <JCHEM_ROTATABLE_BOND_COUNT>
8

>  <JCHEM_RULE_OF_FIVE>
1

>  <ALOGPS_SOLUBILITY>
1.08e-02 g/l

>  <JCHEM_TRADITIONAL_IUPAC>
(2R)-14-fluoro-2-methyl-6,9,10,19-tetraazapentacyclo[14.2.1.0^{2,6}.0^{8,18}.0^{12,17}]nonadeca-1(18),8,12(17),13,15-pentaen-11-one

>  <JCHEM_VEBER_RULE>
0

>  <DRUGBANK_ID>
DB15079

>  <DRUG_GROUPS>
investigational

>  <GENERIC_NAME>
Troriluzole

>  <SYNONYMS>
Troriluzole

>  <SALTS>
Troriluzole hydrochloride

$$$$

 OpenBabel05042401512D

 22 25  0  0  0  0  0  0  0  0999 V2000
   -1.5127   -2.6048    0.0000 O   0  0  0  0  0  0  0  0  0  0  0  0
   -1.2578   -3.3894    0.0000 C   0  0  0  0  0  0  0  0  0  0  0  0
   -1.7427   -4.0569    0.0000 N   0  0  0  0  0  0  0  0  0  0  0  0
   -2.5677   -4.0569    0.0000 C   0  0  0  0  0  0  0  0  0  0  0  0
   -2.9802   -4.7714    0.0000 C   0  0  0  0  0  0  0  0  0  0  0  0
   -3.8052   -4.7714    0.0000 N   0  0  0  0  0  0  0  0  0  0  0  0
   -4.2901   -4.1039    0.0000 Se  0  0  0  0  0  0  0  0  0  0  0  0
   -5.0748   -4.3589    0.0000 C   0  0  0  0  0  0  0  0  0  0  0  0
   -5.0748   -5.1839    0.0000 C   0  0  0  0  0  0  0  0  0  0  0  0
   -5.7892   -5.5964    0.0000 C   0  0  0  0  0  0  0  0  0  0  0  0
   -6.5037   -5.1839    0.0000 C   0  0  0  0  0  0  0  0  0  0  0  0
   -6.5037   -4.3589    0.0000 C   0  0  0  0  0  0  0  0  0  0  0  0
   -5.7892   -3.9464    0.0000 C   0  0  0  0  0  0  0  0  0  0  0  0
   -4.2901   -5.4388    0.0000 C   0  0  0  0  0  0  0  0  0  0  0  0
   -4.0352   -6.2234    0.0000 O   0  0  0  0  0  0  0  0  0  0  0  0
   -1.2578   -4.7243    0.0000 Se  0  0  0  0  0  0  0  0  0  0  0  0
   -0.4732   -4.4694    0.0000 C   0  0  0  0  0  0  0  0  0  0  0  0
   -0.4732   -3.6444    0.0000 C   0  0  0  0  0  0  0  0  0  0  0  0
    0.2413   -3.2319    0.0000 C   0  0  0  0  0  0  0  0  0  0  0  0
    0.9558   -3.6444    0.0000 C   0  0  0  0  0  0  0  0  0  0  0  0
    0.9558   -4.4694    0.0000 C   0  0  0  0  0  0  0  0  0  0  0  0
    0.2413   -4.8819    0.0000 C   0  0  0  0  0  0  0  0  0  0  0  0
  1  2  2  0  0  0  0
  2  3  1  0  0  0  0
  2 18  1  0  0  0  0
  3  4  1  0  0  0  0
  3 16  1  0  0  0  0
  4  5  1  0  0  0  0
  5  6  1  0  0  0  0
  6  7  1  0  0  0  0
  6 14  1  0  0  0  0
  7  8  1  0  0  0  0
  8  9  2  0  0  0  0
  8 13  1  0  0  0  0
  9 10  1  0  0  0  0
  9 14  1  0  0  0  0
 10 11  2  0  0  0  0
 11 12  1  0  0  0  0
 12 13  2  0  0  0  0
 14 15  2  0  0  0  0
 16 17  1  0  0  0  0
 17 18  2  0  0  0  0
 17 22  1  0  0  0  0
 18 19  1  0  0  0  0
 19 20  2  0  0  0  0
 20 21  1  0  0  0  0
 21 22  2  0  0  0  0
M  END
>  <DATABASE_ID>
DB15051

>  <DATABASE_NAME>
drugbank

>  <SMILES>
O=C1N(CCN2[Se]C3=C(C=CC=C3)C2=O)[Se]C2=C1C=CC=C2

>  <INCHI_IDENTIFIER>
InChI=1S/C16H12N2O2Se2/c19-15-11-5-1-3-7-13(11)21-17(15)9-10-18-16(20)12-6-2-4-8-14(12)22-18/h1-8H,9-10H2

>  <INCHI_KEY>
SFFSGPCYJCMDJM-UHFFFAOYSA-N

>  <FORMULA>
C16H12N2O2Se2

>  <MOLECULAR_WEIGHT>
422.226

>  <EXACT_MASS>
423.922922

>  <JCHEM_ACCEPTOR_COUNT>
4

>  <JCHEM_ATOM_COUNT>
34

>  <JCHEM_AVERAGE_POLARIZABILITY>
32.16091655002078

>  <JCHEM_BIOAVAILABILITY>
1

>  <JCHEM_DONOR_COUNT>
0

>  <JCHEM_FORMAL_CHARGE>
0

>  <JCHEM_GHOSE_FILTER>
1

>  <JCHEM_IUPAC>
2-[2-(3-oxo-2,3-dihydro-1,2-benzoselenazol-2-yl)ethyl]-2,3-dihydro-1,2-benzoselenazol-3-one

>  <ALOGPS_LOGP>
1.36

>  <JCHEM_LOGP>
1.7683999999999997

>  <ALOGPS_LOGS>
-1.98

>  <JCHEM_MDDR_LIKE_RULE>
0

>  <JCHEM_NUMBER_OF_RINGS>
4

>  <JCHEM_PHYSIOLOGICAL_CHARGE>
0

>  <JCHEM_PKA_STRONGEST_BASIC>
-7.662196952495192

>  <JCHEM_POLAR_SURFACE_AREA>
40.620000000000005

>  <JCHEM_REFRACTIVITY>
101.55960000000003

>  <JCHEM_ROTATABLE_BOND_COUNT>
3

>  <JCHEM_RULE_OF_FIVE>
1

>  <ALOGPS_SOLUBILITY>
4.38e+00 g/l

>  <JCHEM_TRADITIONAL_IUPAC>
(2R)-14-fluoro-2-methyl-6,9,10,19-tetraazapentacyclo[14.2.1.0^{2,6}.0^{8,18}.0^{12,17}]nonadeca-1(18),8,12(17),13,15-pentaen-11-one

>  <JCHEM_VEBER_RULE>
0

>  <DRUGBANK_ID>
DB15051

>  <DRUG_GROUPS>
investigational

>  <GENERIC_NAME>
Ethaselen

$$$$

 OpenBabel05042401512D

 32 35  0  0  1  0  0  0  0  0999 V2000
    0.0000   -4.1250    0.0000 C   0  0  0  0  0  0  0  0  0  0  0  0
    0.0000   -4.9500    0.0000 C   0  0  2  0  0  0  0  0  0  0  0  0
   -0.7145   -5.3625    0.0000 C   0  0  0  0  0  0  0  0  0  0  0  0
   -0.7145   -6.1875    0.0000 C   0  0  2  0  0  0  0  0  0  0  0  0
   -1.4289   -6.6000    0.0000 N   0  0  0  0  0  0  0  0  0  0  0  0
    0.0000   -6.6000    0.0000 C   0  0  0  0  0  0  0  0  0  0  0  0
    0.7145   -6.1875    0.0000 C   0  0  1  0  0  0  0  0  0  0  0  0
    0.7145   -5.3625    0.0000 C   0  0  0  0  0  0  0  0  0  0  0  0
    1.4289   -6.6000    0.0000 C   0  0  0  0  0  0  0  0  0  0  0  0
    1.4289   -7.4250    0.0000 C   0  0  0  0  0  0  0  0  0  0  0  0
    0.7145   -7.8375    0.0000 N   0  0  0  0  0  0  0  0  0  0  0  0
    0.7145   -8.6625    0.0000 C   0  0  0  0  0  0  0  0  0  0  0  0
    1.4289   -9.0750    0.0000 O   0  0  0  0  0  0  0  0  0  0  0  0
    0.0000   -9.0750    0.0000 C   0  0  0  0  0  0  0  0  0  0  0  0
    0.0000   -9.9000    0.0000 N   0  0  0  0  0  0  0  0  0  0  0  0
   -0.7145  -10.3125    0.0000 C   0  0  0  0  0  0  0  0  0  0  0  0
   -1.4289   -9.9000    0.0000 C   0  0  0  0  0  0  0  0  0  0  0  0
   -2.1434  -10.3125    0.0000 F   0  0  0  0  0  0  0  0  0  0  0  0
   -1.4289   -9.0750    0.0000 C   0  0  0  0  0  0  0  0  0  0  0  0
   -0.7145   -8.6625    0.0000 C   0  0  0  0  0  0  0  0  0  0  0  0
   -0.7145  -11.1375    0.0000 C   0  0  0  0  0  0  0  0  0  0  0  0
    0.0000  -11.5500    0.0000 C   0  0  0  0  0  0  0  0  0  0  0  0
    0.7145  -11.1375    0.0000 F   0  0  0  0  0  0  0  0  0  0  0  0
    0.0000  -12.3750    0.0000 C   0  0  0  0  0  0  0  0  0  0  0  0
   -0.7145  -12.7875    0.0000 C   0  0  0  0  0  0  0  0  0  0  0  0
   -1.4289  -12.3750    0.0000 C   0  0  0  0  0  0  0  0  0  0  0  0
   -1.4289  -11.5500    0.0000 C   0  0  0  0  0  0  0  0  0  0  0  0
   -2.1434  -11.1375    0.0000 F   0  0  0  0  0  0  0  0  0  0  0  0
    2.1434   -7.8375    0.0000 C   0  0  0  0  0  0  0  0  0  0  0  0
    2.8579   -7.4250    0.0000 N   0  0  0  0  0  0  0  0  0  0  0  0
    2.8579   -6.6000    0.0000 C   0  0  0  0  0  0  0  0  0  0  0  0
    2.1434   -6.1875    0.0000 C   0  0  0  0  0  0  0  0  0  0  0  0
  2  1  1  1  0  0  0
  2  3  1  0  0  0  0
  2  8  1  0  0  0  0
  4  3  1  0  0  0  0
  4  5  1  1  0  0  0
  4  6  1  0  0  0  0
  7  6  1  0  0  0  0
  7  8  1  0  0  0  0
  7  9  1  1  0  0  0
  9 10  2  0  0  0  0
  9 32  1  0  0  0  0
 10 11  1  0  0  0  0
 10 29  1  0  0  0  0
 11 12  1  0  0  0  0
 12 13  2  0  0  0  0
 12 14  1  0  0  0  0
 14 15  2  0  0  0  0
 14 20  1  0  0  0  0
 15 16  1  0  0  0  0
 16 17  2  0  0  0  0
 16 21  1  0  0  0  0
 17 18  1  0  0  0  0
 17 19  1  0  0  0  0
 19 20  2  0  0  0  0
 21 22  2  0  0  0  0
 21 27  1  0  0  0  0
 22 23  1  0  0  0  0
 22 24  1  0  0  0  0
 24 25  2  0  0  0  0
 25 26  1  0  0  0  0
 26 27  2  0  0  0  0
 27 28  1  0  0  0  0
 29 30  2  0  0  0  0
 30 31  1  0  0  0  0
 31 32  2  0  0  0  0
M  END
>  <DATABASE_ID>
DB14943

>  <DATABASE_NAME>
drugbank

>  <SMILES>
C[C@@H]1C[C@H](N)C[C@@H](C1)C1=C(NC(=O)C2=NC(=C(F)C=C2)C2=C(F)C=CC=C2F)C=NC=C1

>  <INCHI_IDENTIFIER>
InChI=1S/C24H23F3N4O/c1-13-9-14(11-15(28)10-13)16-7-8-29-12-21(16)31-24(32)20-6-5-19(27)23(30-20)22-17(25)3-2-4-18(22)26/h2-8,12-15H,9-11,28H2,1H3,(H,31,32)/t13-,14+,15-/m0/s1

>  <INCHI_KEY>
VRQXRVAKPDCRCI-ZNMIVQPWSA-N

>  <FORMULA>
C24H23F3N4O

>  <MOLECULAR_WEIGHT>
440.47

>  <EXACT_MASS>
440.182395866

>  <JCHEM_ACCEPTOR_COUNT>
4

>  <JCHEM_ATOM_COUNT>
55

>  <JCHEM_AVERAGE_POLARIZABILITY>
44.581469247069926

>  <JCHEM_BIOAVAILABILITY>
1

>  <JCHEM_DONOR_COUNT>
2

>  <JCHEM_FORMAL_CHARGE>
0

>  <JCHEM_GHOSE_FILTER>
1

>  <JCHEM_IUPAC>
N-{4-[(1R,3S,5S)-3-amino-5-methylcyclohexyl]pyridin-3-yl}-6-(2,6-difluorophenyl)-5-fluoropyridine-2-carboxamide

>  <ALOGPS_LOGP>
4.22

>  <JCHEM_LOGP>
4.385225605666667

>  <ALOGPS_LOGS>
-5.44

>  <JCHEM_MDDR_LIKE_RULE>
0

>  <JCHEM_NUMBER_OF_RINGS>
4

>  <JCHEM_PHYSIOLOGICAL_CHARGE>
1

>  <JCHEM_PKA_STRONGEST_ACIDIC>
14.029435792707934

>  <JCHEM_PKA_STRONGEST_BASIC>
10.278850049000871

>  <JCHEM_POLAR_SURFACE_AREA>
80.89999999999999

>  <JCHEM_REFRACTIVITY>
116.3863

>  <JCHEM_ROTATABLE_BOND_COUNT>
3

>  <JCHEM_RULE_OF_FIVE>
1

>  <ALOGPS_SOLUBILITY>
1.60e-03 g/l

>  <JCHEM_TRADITIONAL_IUPAC>
(2R)-14-fluoro-2-methyl-6,9,10,19-tetraazapentacyclo[14.2.1.0^{2,6}.0^{8,18}.0^{12,17}]nonadeca-1(18),8,12(17),13,15-pentaen-11-one

>  <JCHEM_VEBER_RULE>
0

>  <DRUGBANK_ID>
DB14943

>  <DRUG_GROUPS>
investigational

>  <GENERIC_NAME>
LGH-447

$$$$

 OpenBabel05042401512D

 43 44  0  0  0  0  0  0  0  0999 V2000
    5.0013   14.4375    0.0000 C   0  0  0  0  0  0  0  0  0  0  0  0
    5.0013   13.6125    0.0000 C   0  0  0  0  0  0  0  0  0  0  0  0
    5.7158   13.2000    0.0000 C   0  0  0  0  0  0  0  0  0  0  0  0
    4.2868   13.2000    0.0000 C   0  0  0  0  0  0  0  0  0  0  0  0
    4.2868   12.3750    0.0000 C   0  0  0  0  0  0  0  0  0  0  0  0
    3.5724   11.9625    0.0000 C   0  0  0  0  0  0  0  0  0  0  0  0
    3.5724   11.1375    0.0000 C   0  0  0  0  0  0  0  0  0  0  0  0
    4.2868   10.7250    0.0000 C   0  0  0  0  0  0  0  0  0  0  0  0
    2.8579   10.7250    0.0000 C   0  0  0  0  0  0  0  0  0  0  0  0
    2.8579    9.9000    0.0000 C   0  0  0  0  0  0  0  0  0  0  0  0
    2.1434    9.4875    0.0000 C   0  0  0  0  0  0  0  0  0  0  0  0
    2.1434    8.6625    0.0000 C   0  0  0  0  0  0  0  0  0  0  0  0
    2.8579    8.2500    0.0000 C   0  0  0  0  0  0  0  0  0  0  0  0
    1.4289    8.2500    0.0000 C   0  0  0  0  0  0  0  0  0  0  0  0
    1.4289    7.4250    0.0000 C   0  0  0  0  0  0  0  0  0  0  0  0
    0.7145    7.0125    0.0000 C   0  0  0  0  0  0  0  0  0  0  0  0
    0.7145    6.1875    0.0000 C   0  0  0  0  0  0  0  0  0  0  0  0
    1.4289    5.7750    0.0000 C   0  0  0  0  0  0  0  0  0  0  0  0
    0.0000    5.7750    0.0000 C   0  0  0  0  0  0  0  0  0  0  0  0
    0.0000    4.9500    0.0000 C   0  0  0  0  0  0  0  0  0  0  0  0
   -0.7145    4.5375    0.0000 C   0  0  0  0  0  0  0  0  0  0  0  0
   -0.7145    3.7125    0.0000 C   0  0  0  0  0  0  0  0  0  0  0  0
    0.0000    3.3000    0.0000 C   0  0  0  0  0  0  0  0  0  0  0  0
   -1.4289    3.3000    0.0000 C   0  0  0  0  0  0  0  0  0  0  0  0
   -1.4289    2.4750    0.0000 C   0  0  0  0  0  0  0  0  0  0  0  0
   -2.1434    2.0625    0.0000 C   0  0  0  0  0  0  0  0  0  0  0  0
   -2.1434    1.2375    0.0000 C   0  0  0  0  0  0  0  0  0  0  0  0
   -2.8579    0.8250    0.0000 C   0  0  0  0  0  0  0  0  0  0  0  0
   -1.4289    0.8250    0.0000 C   0  0  0  0  0  0  0  0  0  0  0  0
   -1.4289    0.0000    0.0000 C   0  0  0  0  0  0  0  0  0  0  0  0
   -0.7145   -0.4125    0.0000 C   0  0  0  0  0  0  0  0  0  0  0  0
   -0.7145   -1.2375    0.0000 C   0  0  0  0  0  0  0  0  0  0  0  0
   -1.4289   -1.6500    0.0000 C   0  0  0  0  0  0  0  0  0  0  0  0
    0.0000   -1.6500    0.0000 C   0  0  0  0  0  0  0  0  0  0  0  0
    0.0000   -2.4750    0.0000 O   0  0  0  0  0  0  0  0  0  0  0  0
    0.7145   -1.2375    0.0000 C   0  0  0  0  0  0  0  0  0  0  0  0
    0.7145   -0.4125    0.0000 C   0  0  0  0  0  0  0  0  0  0  0  0
    1.4289   -0.0000    0.0000 C   0  0  0  0  0  0  0  0  0  0  0  0
    2.1434   -0.4125    0.0000 C   0  0  0  0  0  0  0  0  0  0  0  0
    2.1434   -1.2375    0.0000 C   0  0  0  0  0  0  0  0  0  0  0  0
    1.4289   -1.6500    0.0000 C   0  0  0  0  0  0  0  0  0  0  0  0
    0.0000   -0.0000    0.0000 C   0  0  0  0  0  0  0  0  0  0  0  0
    0.0000    0.8250    0.0000 O   0  0  0  0  0  0  0  0  0  0  0  0
  1  2  1  0  0  0  0
  2  3  1  0  0  0  0
  2  4  2  0  0  0  0
  4  5  1  0  0  0  0
  5  6  1  0  0  0  0
  6  7  1  0  0  0  0
  7  8  1  0  0  0  0
  7  9  2  0  0  0  0
  9 10  1  0  0  0  0
 10 11  1  0  0  0  0
 11 12  1  0  0  0  0
 12 13  1  0  0  0  0
 12 14  2  0  0  0  0
 14 15  1  0  0  0  0
 15 16  1  0  0  0  0
 16 17  1  0  0  0  0
 17 18  1  0  0  0  0
 17 19  2  0  0  0  0
 19 20  1  0  0  0  0
 20 21  1  0  0  0  0
 21 22  1  0  0  0  0
 22 23  1  0  0  0  0
 22 24  2  0  0  0  0
 24 25  1  0  0  0  0
 25 26  1  0  0  0  0
 26 27  1  0  0  0  0
 27 28  1  0  0  0  0
 27 29  2  0  0  0  0
 29 30  1  0  0  0  0
 30 31  1  0  0  0  0
 31 32  2  0  0  0  0
 31 42  1  0  0  0  0
 32 33  1  0  0  0  0
 32 34  1  0  0  0  0
 34 35  2  0  0  0  0
 34 36  1  0  0  0  0
 36 37  2  0  0  0  0
 36 41  1  0  0  0  0
 37 38  1  0  0  0  0
 37 42  1  0  0  0  0
 38 39  2  0  0  0  0
 39 40  1  0  0  0  0
 40 41  2  0  0  0  0
 42 43  2  0  0  0  0
M  END
>  <DATABASE_ID>
DB14936

>  <DATABASE_NAME>
drugbank

>  <SMILES>
CC(C)=CCC\C(C)=C\CC\C(C)=C\CC\C(C)=C\CC\C(C)=C\CC\C(C)=C\CC1=C(C)C(=O)C2=C(C=CC=C2)C1=O

>  <INCHI_IDENTIFIER>
InChI=1S/C41H56O2/c1-30(2)16-11-17-31(3)18-12-19-32(4)20-13-21-33(5)22-14-23-34(6)24-15-25-35(7)28-29-37-36(8)40(42)38-26-9-10-27-39(38)41(37)43/h9-10,16,18,20,22,24,26-28H,11-15,17,19,21,23,25,29H2,1-8H3/b31-18+,32-20+,33-22+,34-24+,35-28+

>  <INCHI_KEY>
PFRQBZFETXBLTP-RCIYGOBDSA-N

>  <FORMULA>
C41H56O2

>  <MOLECULAR_WEIGHT>
580.8821

>  <EXACT_MASS>
580.428031036

>  <JCHEM_ACCEPTOR_COUNT>
2

>  <JCHEM_ATOM_COUNT>
99

>  <JCHEM_AVERAGE_POLARIZABILITY>
74.53714049658824

>  <JCHEM_BIOAVAILABILITY>
0

>  <JCHEM_DONOR_COUNT>
0

>  <JCHEM_FORMAL_CHARGE>
0

>  <JCHEM_GHOSE_FILTER>
0

>  <JCHEM_IUPAC>
2-[(2E,6E,10E,14E,18E)-3,7,11,15,19,23-hexamethyltetracosa-2,6,10,14,18,22-hexaen-1-yl]-3-methyl-1,4-dihydronaphthalene-1,4-dione

>  <ALOGPS_LOGP>
9.01

>  <JCHEM_LOGP>
11.79913591433333

>  <ALOGPS_LOGS>
-6.34

>  <JCHEM_MDDR_LIKE_RULE>
0

>  <JCHEM_NUMBER_OF_RINGS>
2

>  <JCHEM_PHYSIOLOGICAL_CHARGE>
0

>  <JCHEM_PKA_STRONGEST_BASIC>
-7.224343414413889

>  <JCHEM_POLAR_SURFACE_AREA>
34.14

>  <JCHEM_REFRACTIVITY>
193.11200000000005

>  <JCHEM_ROTATABLE_BOND_COUNT>
17

>  <JCHEM_RULE_OF_FIVE>
0

>  <ALOGPS_SOLUBILITY>
2.66e-04 g/l

>  <JCHEM_TRADITIONAL_IUPAC>
(2R)-14-fluoro-2-methyl-6,9,10,19-tetraazapentacyclo[14.2.1.0^{2,6}.0^{8,18}.0^{12,17}]nonadeca-1(18),8,12(17),13,15-pentaen-11-one

>  <JCHEM_VEBER_RULE>
0

>  <DRUGBANK_ID>
DB14936

>  <DRUG_GROUPS>
investigational

>  <GENERIC_NAME>
Menaquinone 6

>  <SYNONYMS>
VITAMIN K2

$$$$

 OpenBabel05042401512D

 43 43  0  0  1  0  0  0  0  0999 V2000
    4.5012   -1.4416    0.0000 N   0  0  0  0  0  0  0  0  0  0  0  0
    5.2550   -1.1104    0.0000 C   0  0  1  0  0  0  0  0  0  0  0  0
    5.8078   -1.7220    0.0000 C   0  0  0  0  0  0  0  0  0  0  0  0
    5.3961   -2.4369    0.0000 C   0  0  0  0  0  0  0  0  0  0  0  0
    4.5878   -2.2648    0.0000 C   0  0  0  0  0  0  0  0  0  0  0  0
    5.4269   -0.3021    0.0000 C   0  0  0  0  0  0  0  0  0  0  0  0
    6.2105   -0.0468    0.0000 O   0  0  0  0  0  0  0  0  0  0  0  0
    4.8154    0.2508    0.0000 O   0  0  0  0  0  0  0  0  0  0  0  0
    3.7863   -1.0297    0.0000 C   0  0  0  0  0  0  0  0  0  0  0  0
    3.0715   -1.4416    0.0000 C   0  0  2  0  0  0  0  0  0  0  0  0
    3.0715   -2.2698    0.0000 C   0  0  1  0  0  0  0  0  0  0  0  0
    3.7863   -2.6817    0.0000 C   0  0  0  0  0  0  0  0  0  0  0  0
    2.3566   -2.6817    0.0000 O   0  0  0  0  0  0  0  0  0  0  0  0
    2.3566   -1.0297    0.0000 N   0  0  0  0  0  0  0  0  0  0  0  0
    1.6463   -1.4416    0.0000 C   0  0  0  0  0  0  0  0  0  0  0  0
    0.9315   -1.0297    0.0000 C   0  0  2  0  0  0  0  0  0  0  0  0
    0.9315   -0.2058    0.0000 C   0  0  0  0  0  0  0  0  0  0  0  0
    1.6463    0.2058    0.0000 S   0  0  0  0  0  0  0  0  0  0  0  0
    1.2345    0.9207    0.0000 O   0  0  0  0  0  0  0  0  0  0  0  0
    2.0581   -0.5088    0.0000 O   0  0  0  0  0  0  0  0  0  0  0  0
    2.3566    0.6178    0.0000 O   0  0  0  0  0  0  0  0  0  0  0  0
    0.2167   -1.4416    0.0000 N   0  0  0  0  0  0  0  0  0  0  0  0
   -0.4982   -1.0297    0.0000 C   0  0  0  0  0  0  0  0  0  0  0  0
   -1.2130   -1.4416    0.0000 C   0  0  0  0  0  0  0  0  0  0  0  0
   -1.9279   -1.0297    0.0000 N   0  0  0  0  0  0  0  0  0  0  0  0
   -2.6428   -1.4416    0.0000 C   0  0  0  0  0  0  0  0  0  0  0  0
   -3.3531   -1.0297    0.0000 C   0  0  2  0  0  0  0  0  0  0  0  0
   -3.3531   -0.2058    0.0000 C   0  0  0  0  0  0  0  0  0  0  0  0
   -4.0679    0.2058    0.0000 C   0  0  0  0  0  0  0  0  0  0  0  0
   -4.0679    1.0297    0.0000 C   0  0  0  0  0  0  0  0  0  0  0  0
   -4.7827    1.4416    0.0000 N   0  0  0  0  0  0  0  0  0  0  0  0
   -4.7827    2.2699    0.0000 C   0  0  0  0  0  0  0  0  0  0  0  0
   -5.4977    2.6817    0.0000 N   0  0  0  0  0  0  0  0  0  0  0  0
   -4.0679    2.6817    0.0000 N   0  0  0  0  0  0  0  0  0  0  0  0
   -4.0679   -1.4416    0.0000 N   0  0  0  0  0  0  0  0  0  0  0  0
   -4.7827   -1.0297    0.0000 C   0  0  0  0  0  0  0  0  0  0  0  0
   -5.4977   -1.4416    0.0000 C   0  0  0  0  0  0  0  0  0  0  0  0
   -6.2105   -1.0297    0.0000 N   0  0  0  0  0  0  0  0  0  0  0  0
   -4.7827   -0.2058    0.0000 O   0  0  0  0  0  0  0  0  0  0  0  0
   -2.6428   -2.2698    0.0000 O   0  0  0  0  0  0  0  0  0  0  0  0
   -0.4982   -0.2058    0.0000 O   0  0  0  0  0  0  0  0  0  0  0  0
    1.6463   -2.2698    0.0000 O   0  0  0  0  0  0  0  0  0  0  0  0
    3.7863   -0.2058    0.0000 O   0  0  0  0  0  0  0  0  0  0  0  0
  1  2  1  0  0  0  0
  1  5  1  0  0  0  0
  1  9  1  0  0  0  0
  2  3  1  0  0  0  0
  2  6  1  6  0  0  0
  3  4  1  0  0  0  0
  4  5  1  0  0  0  0
  6  7  2  0  0  0  0
  6  8  1  0  0  0  0
  9 43  2  0  0  0  0
 10  9  1  6  0  0  0
 10 11  1  0  0  0  0
 10 14  1  0  0  0  0
 11 12  1  1  0  0  0
 11 13  1  0  0  0  0
 15 14  1  0  0  0  0
 15 42  2  0  0  0  0
 16 15  1  1  0  0  0
 16 17  1  0  0  0  0
 16 22  1  0  0  0  0
 17 18  1  0  0  0  0
 18 19  2  0  0  0  0
 18 20  2  0  0  0  0
 18 21  1  0  0  0  0
 23 22  1  0  0  0  0
 23 24  1  0  0  0  0
 23 41  2  0  0  0  0
 24 25  1  0  0  0  0
 26 25  1  0  0  0  0
 26 40  2  0  0  0  0
 27 26  1  1  0  0  0
 27 28  1  0  0  0  0
 27 35  1  0  0  0  0
 28 29  1  0  0  0  0
 29 30  1  0  0  0  0
 30 31  1  0  0  0  0
 31 32  1  0  0  0  0
 32 33  1  0  0  0  0
 32 34  2  0  0  0  0
 36 35  1  0  0  0  0
 36 37  1  0  0  0  0
 36 39  2  0  0  0  0
 37 38  1  0  0  0  0
M  END
>  <DATABASE_ID>
DB14911

>  <DATABASE_NAME>
drugbank

>  <SMILES>
C[C@@H](O)[C@H](NC(=O)[C@H](CS(O)(=O)=O)NC(=O)CNC(=O)[C@H](CCCNC(N)=N)NC(=O)CN)C(=O)N1CCC[C@H]1C(O)=O

>  <INCHI_IDENTIFIER>
InChI=1S/C22H39N9O11S/c1-11(32)17(20(37)31-7-3-5-14(31)21(38)39)30-19(36)13(10-43(40,41)42)29-16(34)9-27-18(35)12(28-15(33)8-23)4-2-6-26-22(24)25/h11-14,17,32H,2-10,23H2,1H3,(H,27,35)(H,28,33)(H,29,34)(H,30,36)(H,38,39)(H4,24,25,26)(H,40,41,42)/t11-,12+,13+,14+,17+/m1/s1

>  <INCHI_KEY>
MYZAXBZLEILEBR-RVFOSREFSA-N

>  <FORMULA>
C22H39N9O11S

>  <MOLECULAR_WEIGHT>
637.67

>  <EXACT_MASS>
637.248974286

>  <JCHEM_ACCEPTOR_COUNT>
15

>  <JCHEM_ATOM_COUNT>
82

>  <JCHEM_AVERAGE_POLARIZABILITY>
61.635546511217235

>  <JCHEM_BIOAVAILABILITY>
0

>  <JCHEM_DONOR_COUNT>
11

>  <JCHEM_FORMAL_CHARGE>
0

>  <JCHEM_GHOSE_FILTER>
0

>  <JCHEM_IUPAC>
(2S)-1-[(2S,3R)-2-[(2R)-2-{2-[(2S)-2-(2-aminoacetamido)-5-carbamimidamidopentanamido]acetamido}-3-sulfopropanamido]-3-hydroxybutanoyl]pyrrolidine-2-carboxylic acid

>  <ALOGPS_LOGP>
-1.96

>  <JCHEM_LOGP>
-11.880759765773519

>  <ALOGPS_LOGS>
-3.00

>  <JCHEM_MDDR_LIKE_RULE>
0

>  <JCHEM_NUMBER_OF_RINGS>
1

>  <JCHEM_PHYSIOLOGICAL_CHARGE>
0

>  <JCHEM_PKA>
-0.7549089328989046

>  <JCHEM_PKA_STRONGEST_ACIDIC>
-1.3578884863013019

>  <JCHEM_PKA_STRONGEST_BASIC>
12.701326830214105

>  <JCHEM_POLAR_SURFACE_AREA>
336.53

>  <JCHEM_REFRACTIVITY>
155.01160000000004

>  <JCHEM_ROTATABLE_BOND_COUNT>
17

>  <JCHEM_RULE_OF_FIVE>
0

>  <ALOGPS_SOLUBILITY>
6.43e-01 g/l

>  <JCHEM_TRADITIONAL_IUPAC>
topramezone

>  <JCHEM_VEBER_RULE>
0

>  <DRUGBANK_ID>
DB14911

>  <DRUG_GROUPS>
investigational

>  <GENERIC_NAME>
Risuteganib

>  <SYNONYMS>
Risuteganib

>  <INTERNATIONAL_BRANDS>
Luminate

$$$$

 OpenBabel05042401512D

 40 39  0  0  1  0  0  0  0  0999 V2000
    1.0718    0.4127    0.0000 C   0  0  0  0  0  0  0  0  0  0  0  0
    0.3572    0.8251    0.0000 C   0  0  0  0  0  0  0  0  0  0  0  0
   -0.3571    0.4127    0.0000 C   0  0  0  0  0  0  0  0  0  0  0  0
    2.5007    0.4127    0.0000 C   0  0  0  0  0  0  0  0  0  0  0  0
    1.7862    0.8251    0.0000 C   0  0  0  0  0  0  0  0  0  0  0  0
    3.9297    0.4127    0.0000 C   0  0  0  0  0  0  0  0  0  0  0  0
    3.2151    0.8251    0.0000 C   0  0  0  0  0  0  0  0  0  0  0  0
    4.6441    0.8251    0.0000 C   0  0  2  0  0  0  0  0  0  0  0  0
    5.3585    0.4127    0.0000 C   0  0  2  0  0  0  0  0  0  0  0  0
    6.0731    0.8251    0.0000 C   0  0  0  0  0  0  0  0  0  0  0  0
    4.6441    1.6499    0.0000 O   0  0  0  0  0  0  0  0  0  0  0  0
    5.3585   -0.4125    0.0000 N   0  0  0  0  0  0  0  0  0  0  0  0
    6.7874    0.4125    0.0000 O   0  0  0  0  0  0  0  0  0  0  0  0
   -1.0716    0.8251    0.0000 C   0  0  0  0  0  0  0  0  0  0  0  0
   -1.7860    0.4126    0.0000 C   0  0  0  0  0  0  0  0  0  0  0  0
   -2.5005    0.8250    0.0000 C   0  0  0  0  0  0  0  0  0  0  0  0
   -3.2150    0.4126    0.0000 C   0  0  0  0  0  0  0  0  0  0  0  0
   -3.9295    0.8249    0.0000 C   0  0  0  0  0  0  0  0  0  0  0  0
   -4.6439    0.4125    0.0000 C   0  0  0  0  0  0  0  0  0  0  0  0
   -5.3584    0.8249    0.0000 C   0  0  0  0  0  0  0  0  0  0  0  0
   -6.0729    0.4125    0.0000 C   0  0  0  0  0  0  0  0  0  0  0  0
    5.3585   -1.2375    0.0000 C   0  0  0  0  0  0  0  0  0  0  0  0
    6.0730   -1.6499    0.0000 O   0  0  0  0  0  0  0  0  0  0  0  0
    4.6440   -1.6499    0.0000 C   0  0  0  0  0  0  0  0  0  0  0  0
    3.9296   -1.2375    0.0000 C   0  0  0  0  0  0  0  0  0  0  0  0
    3.2151   -1.6499    0.0000 C   0  0  0  0  0  0  0  0  0  0  0  0
    2.5006   -1.2375    0.0000 C   0  0  0  0  0  0  0  0  0  0  0  0
    1.7861   -1.6499    0.0000 C   0  0  0  0  0  0  0  0  0  0  0  0
    1.0717   -1.2375    0.0000 C   0  0  0  0  0  0  0  0  0  0  0  0
    0.3572   -1.6499    0.0000 C   0  0  0  0  0  0  0  0  0  0  0  0
   -0.3572   -1.2375    0.0000 C   0  0  0  0  0  0  0  0  0  0  0  0
   -1.0716   -1.6499    0.0000 C   0  0  0  0  0  0  0  0  0  0  0  0
   -1.7861   -1.2375    0.0000 C   0  0  0  0  0  0  0  0  0  0  0  0
   -2.5006   -1.6499    0.0000 C   0  0  0  0  0  0  0  0  0  0  0  0
   -3.2151   -1.2375    0.0000 C   0  0  0  0  0  0  0  0  0  0  0  0
   -3.9295   -1.6499    0.0000 C   0  0  0  0  0  0  0  0  0  0  0  0
   -4.6440   -1.2375    0.0000 C   0  0  0  0  0  0  0  0  0  0  0  0
   -5.3585   -1.6499    0.0000 C   0  0  0  0  0  0  0  0  0  0  0  0
   -6.0729   -1.2375    0.0000 C   0  0  0  0  0  0  0  0  0  0  0  0
   -6.7874   -1.6499    0.0000 C   0  0  0  0  0  0  0  0  0  0  0  0
  1  5  1  0  0  0  0
  2  1  1  0  0  0  0
  3  2  1  0  0  0  0
  3 14  1  0  0  0  0
  4  7  1  0  0  0  0
  5  4  1  0  0  0  0
  7  6  1  0  0  0  0
  8  6  1  1  0  0  0
  8 11  1  0  0  0  0
  8  9  1  0  0  0  0
  9 12  1  6  0  0  0
  9 10  1  0  0  0  0
 10 13  1  0  0  0  0
 12 22  1  0  0  0  0
 14 15  1  0  0  0  0
 15 16  1  0  0  0  0
 16 17  1  0  0  0  0
 17 18  1  0  0  0  0
 18 19  1  0  0  0  0
 19 20  1  0  0  0  0
 20 21  1  0  0  0  0
 22 23  2  0  0  0  0
 22 24  1  0  0  0  0
 24 25  1  0  0  0  0
 25 26  1  0  0  0  0
 26 27  1  0  0  0  0
 27 28  1  0  0  0  0
 28 29  1  0  0  0  0
 29 30  1  0  0  0  0
 30 31  1  0  0  0  0
 31 32  1  0  0  0  0
 32 33  1  0  0  0  0
 33 34  1  0  0  0  0
 34 35  1  0  0  0  0
 35 36  1  0  0  0  0
 36 37  1  0  0  0  0
 37 38  1  0  0  0  0
 38 39  1  0  0  0  0
 39 40  1  0  0  0  0
M  END
>  <DATABASE_ID>
DB14706

>  <DATABASE_NAME>
drugbank

>  <SMILES>
CCCCCCCCCCCCCCCCCC(=O)N[C@@H](CO)[C@H](O)CCCCCCCCCCCCCCC

>  <INCHI_IDENTIFIER>
InChI=1S/C36H73NO3/c1-3-5-7-9-11-13-15-17-18-20-22-24-26-28-30-32-36(40)37-34(33-38)35(39)31-29-27-25-23-21-19-16-14-12-10-8-6-4-2/h34-35,38-39H,3-33H2,1-2H3,(H,37,40)/t34-,35+/m0/s1

>  <INCHI_KEY>
KZTJQXAANJHSCE-OIDHKYIRSA-N

>  <FORMULA>
C36H73NO3

>  <MOLECULAR_WEIGHT>
567.9697

>  <EXACT_MASS>
567.559045207

>  <JCHEM_ACCEPTOR_COUNT>
3

>  <JCHEM_ATOM_COUNT>
113

>  <JCHEM_AVERAGE_POLARIZABILITY>
77.96554192938248

>  <JCHEM_BIOAVAILABILITY>
0

>  <JCHEM_DONOR_COUNT>
3

>  <JCHEM_FORMAL_CHARGE>
0

>  <JCHEM_GHOSE_FILTER>
0

>  <JCHEM_IUPAC>
N-[(2S,3R)-1,3-dihydroxyoctadecan-2-yl]octadecanamide

>  <ALOGPS_LOGP>
9.71

>  <JCHEM_LOGP>
11.960506670333334

>  <ALOGPS_LOGS>
-7.19

>  <JCHEM_MDDR_LIKE_RULE>
0

>  <JCHEM_NUMBER_OF_RINGS>
0

>  <JCHEM_PHYSIOLOGICAL_CHARGE>
0

>  <JCHEM_PKA>
14.492196702047544

>  <JCHEM_PKA_STRONGEST_ACIDIC>
13.831978572938922

>  <JCHEM_PKA_STRONGEST_BASIC>
-1.0432563251212463

>  <JCHEM_POLAR_SURFACE_AREA>
69.56

>  <JCHEM_REFRACTIVITY>
174.01510000000002

>  <JCHEM_ROTATABLE_BOND_COUNT>
33

>  <JCHEM_RULE_OF_FIVE>
0

>  <ALOGPS_SOLUBILITY>
3.66e-05 g/l

>  <JCHEM_TRADITIONAL_IUPAC>
C18DH cer

>  <JCHEM_VEBER_RULE>
0

>  <DRUGBANK_ID>
DB14706

>  <DRUG_GROUPS>
experimental

>  <GENERIC_NAME>
Ceramide NG

>  <SYNONYMS>
1-stearoyl-C18-sphingosine; Ceramide 2; Ceramide 2 pure; Ceramide II; Ceramide NS; N-(octadecanoyl)-dihydroceramide; N-(octadecanoyl)-sphinganine; N-(octodecanoyl)-sphinganine; N-(stearoyl)-dihydroceramide; N-octodecanoyldihydroceramide; N-octodecanoyldihydrosphingosine; N-octodecanoylsphinganine; N-stearoyldihydroceramide; N-stearoyldihydrosphingosine; N-stearoylsphinganine; palmitoyl-c16-dihydrosphingosine

>  <PRODUCTS>
5% Oat Facial Cleanser

$$$$

 OpenBabel05042401512D

 41 40  0  0  1  0  0  0  0  0999 V2000
    3.8783    2.2197    0.0000 N   0  0  0  0  0  0  0  0  0  0  0  0
    4.6062    1.8314    0.0000 C   0  0  0  0  0  0  0  0  0  0  0  0
    4.6062    1.0064    0.0000 C   0  0  0  0  0  0  0  0  0  0  0  0
    5.3342    0.6183    0.0000 C   0  0  0  0  0  0  0  0  0  0  0  0
    5.3343   -0.2068    0.0000 C   0  0  0  0  0  0  0  0  0  0  0  0
    6.0621   -0.5948    0.0000 C   0  0  0  0  0  0  0  0  0  0  0  0
    6.0621   -1.4198    0.0000 C   0  0  0  0  0  0  0  0  0  0  0  0
    6.7901   -1.8081    0.0000 C   0  0  0  0  0  0  0  0  0  0  0  0
    5.2938    2.2439    0.0000 O   0  0  0  0  0  0  0  0  0  0  0  0
    6.8181   -2.6327    0.0000 C   0  0  0  0  0  0  0  0  0  0  0  0
    6.1178   -3.0690    0.0000 C   0  0  0  0  0  0  0  0  0  0  0  0
    3.9043   -0.2555    0.0000 C   0  0  0  0  0  0  0  0  0  0  0  0
    4.6323   -0.6437    0.0000 C   0  0  0  0  0  0  0  0  0  0  0  0
    4.6324   -1.4687    0.0000 C   0  0  0  0  0  0  0  0  0  0  0  0
    5.3603   -1.8570    0.0000 C   0  0  0  0  0  0  0  0  0  0  0  0
    5.3830   -2.6939    0.0000 C   0  0  0  0  0  0  0  0  0  0  0  0
    7.5531   -3.8577    0.0000 C   0  0  0  0  0  0  0  0  0  0  0  0
    6.8456   -4.2822    0.0000 C   0  0  0  0  0  0  0  0  0  0  0  0
    7.5392   -3.0328    0.0000 C   0  0  0  0  0  0  0  0  0  0  0  0
    6.1243   -3.8817    0.0000 C   0  0  0  0  0  0  0  0  0  0  0  0
   -0.4084    3.0450    0.0000 C   0  0  0  0  0  0  0  0  0  0  0  0
   -1.1229    3.4574    0.0000 C   0  0  0  0  0  0  0  0  0  0  0  0
   -1.8373    3.0450    0.0000 C   0  0  0  0  0  0  0  0  0  0  0  0
    1.0205    3.0450    0.0000 C   0  0  0  0  0  0  0  0  0  0  0  0
    0.3060    3.4574    0.0000 C   0  0  0  0  0  0  0  0  0  0  0  0
    2.4495    3.0450    0.0000 C   0  0  2  0  0  0  0  0  0  0  0  0
    1.7349    3.4574    0.0000 C   0  0  0  0  0  0  0  0  0  0  0  0
    3.1638    3.4574    0.0000 C   0  0  2  0  0  0  0  0  0  0  0  0
    3.8783    3.0450    0.0000 C   0  0  2  0  0  0  0  0  0  0  0  0
    4.5929    3.4574    0.0000 C   0  0  0  0  0  0  0  0  0  0  0  0
    3.1638    4.2822    0.0000 O   0  0  0  0  0  0  0  0  0  0  0  0
    5.3072    3.0447    0.0000 O   0  0  0  0  0  0  0  0  0  0  0  0
   -2.5519    3.4574    0.0000 C   0  0  0  0  0  0  0  0  0  0  0  0
   -3.2662    3.0448    0.0000 C   0  0  0  0  0  0  0  0  0  0  0  0
   -3.9808    3.4572    0.0000 C   0  0  0  0  0  0  0  0  0  0  0  0
   -4.6952    3.0448    0.0000 C   0  0  0  0  0  0  0  0  0  0  0  0
   -5.4097    3.4572    0.0000 C   0  0  0  0  0  0  0  0  0  0  0  0
   -6.1241    3.0447    0.0000 C   0  0  0  0  0  0  0  0  0  0  0  0
   -6.8387    3.4572    0.0000 C   0  0  0  0  0  0  0  0  0  0  0  0
   -7.5531    3.0447    0.0000 C   0  0  0  0  0  0  0  0  0  0  0  0
    2.4495    2.2200    0.0000 O   0  0  0  0  0  0  0  0  0  0  0  0
  1  2  1  0  0  0  0
  3  2  1  0  0  0  0
  4  3  1  0  0  0  0
  4  5  1  0  0  0  0
  6  5  1  0  0  0  0
  6  7  1  0  0  0  0
  8  7  1  0  0  0  0
  8 10  1  0  0  0  0
  9  2  2  0  0  0  0
 10 19  1  0  0  0  0
 11 20  1  0  0  0  0
 12 13  1  0  0  0  0
 13 14  1  0  0  0  0
 14 15  1  0  0  0  0
 15 16  1  0  0  0  0
 16 11  1  0  0  0  0
 18 17  1  0  0  0  0
 19 17  2  0  0  0  0
 20 18  1  0  0  0  0
 21 25  1  0  0  0  0
 22 21  1  0  0  0  0
 23 22  1  0  0  0  0
 23 33  1  0  0  0  0
 24 27  1  0  0  0  0
 25 24  1  0  0  0  0
 26 27  1  6  0  0  0
 26 41  1  0  0  0  0
 28 26  1  0  0  0  0
 28 31  1  1  0  0  0
 28 29  1  0  0  0  0
 29  1  1  6  0  0  0
 29 30  1  0  0  0  0
 30 32  1  0  0  0  0
 33 34  1  0  0  0  0
 34 35  1  0  0  0  0
 35 36  1  0  0  0  0
 36 37  1  0  0  0  0
 37 38  1  0  0  0  0
 38 39  1  0  0  0  0
 39 40  1  0  0  0  0
M  END
>  <DATABASE_ID>
DB14111

>  <DATABASE_NAME>
drugbank

>  <SMILES>
CCCCCCCCCCCCCC[C@@H](O)[C@@H](O)[C@H](CO)NC(=O)CCCCCCC\C=C/CCCCCCCC

>  <INCHI_IDENTIFIER>
InChI=1S/C36H71NO4/c1-3-5-7-9-11-13-15-17-18-19-21-23-25-27-29-31-35(40)37-33(32-38)36(41)34(39)30-28-26-24-22-20-16-14-12-10-8-6-4-2/h17-18,33-34,36,38-39,41H,3-16,19-32H2,1-2H3,(H,37,40)/b18-17-/t33-,34+,36-/m0/s1

>  <INCHI_KEY>
ATGQXSBKTQANOH-UWVGARPKSA-N

>  <FORMULA>
C36H71NO4

>  <MOLECULAR_WEIGHT>
581.967

>  <EXACT_MASS>
581.53830977

>  <JCHEM_ACCEPTOR_COUNT>
4

>  <JCHEM_ATOM_COUNT>
112

>  <JCHEM_AVERAGE_POLARIZABILITY>
77.38507409310057

>  <JCHEM_BIOAVAILABILITY>
0

>  <JCHEM_DONOR_COUNT>
4

>  <JCHEM_FORMAL_CHARGE>
0

>  <JCHEM_GHOSE_FILTER>
0

>  <JCHEM_IUPAC>
(9Z)-N-[(2S,3S,4R)-1,3,4-trihydroxyoctadecan-2-yl]octadec-9-enamide

>  <ALOGPS_LOGP>
9.05

>  <JCHEM_LOGP>
10.523681406666666

>  <ALOGPS_LOGS>
-6.78

>  <JCHEM_MDDR_LIKE_RULE>
0

>  <JCHEM_NUMBER_OF_RINGS>
0

>  <JCHEM_PHYSIOLOGICAL_CHARGE>
0

>  <JCHEM_PKA>
14.447066182856133

>  <JCHEM_PKA_STRONGEST_ACIDIC>
13.266689674436645

>  <JCHEM_PKA_STRONGEST_BASIC>
-1.0449960788572872

>  <JCHEM_POLAR_SURFACE_AREA>
89.79

>  <JCHEM_REFRACTIVITY>
176.4932

>  <JCHEM_ROTATABLE_BOND_COUNT>
32

>  <JCHEM_RULE_OF_FIVE>
0

>  <ALOGPS_SOLUBILITY>
9.71e-05 g/l

>  <JCHEM_TRADITIONAL_IUPAC>
(9Z)-N-[(2S,3S,4R)-1,3,4-trihydroxyoctadecan-2-yl]octadec-9-enamide

>  <JCHEM_VEBER_RULE>
0

>  <DRUGBANK_ID>
DB14111

>  <SECONDARY_ACCESSION_NUMBERS>
DB11258

>  <DRUG_GROUPS>
experimental

>  <GENERIC_NAME>
Ceramide NP

>  <SYNONYMS>
Cer(t18:0/18:1n-9); Ceramide 3; Ceramide III; Ceramide IIIb; Cytomide IIIa; Cytomide IIIb; N-(9Z-octadecenoyl)-4-hydroxysphinganine; N-(9Z-octadecenoyl)phytosphingosine; N-octadecanoylphytosphingosine; N-oleoylphytosphingosine; N-oloeoyl-4-hydroxysphinganine

>  <PRODUCTS>
Anti-Aging Serum; Ato Standard Intensivecream; Ato Standard Premium Mildcream; Cellapy A Repair; Cellapy A Repair Cream; Collagen Boost Cream; Dandruff Cleanser; Energy Boosting Toner; JNH Ato-Care Super Barried ATO-Serum; Liquid; Moisture Bound; Sonatural Deep Moisture Cerafocus Enhance Ceramide

$$$$

 OpenBabel05042401512D

 52 58  0  0  0  0  0  0  0  0999 V2000
   -5.7994    1.7473    0.0000 O   0  0  0  0  0  0  0  0  0  0  0  0
   -5.7994    3.3882    0.0000 O   0  0  0  0  0  0  0  0  0  0  0  0
    5.3109   -2.2108    0.0000 O   0  0  0  0  0  0  0  0  0  0  0  0
    4.3339   -3.5510    0.0000 O   0  0  0  0  0  0  0  0  0  0  0  0
    0.2380   -3.1001    0.0000 O   0  0  0  0  0  0  0  0  0  0  0  0
    1.8788   -3.2755    0.0000 O   0  0  0  0  0  0  0  0  0  0  0  0
   -0.7640   -0.8329    0.0000 O   0  0  0  0  0  0  0  0  0  0  0  0
   -2.1669    2.1356    0.0000 N   0  0  0  0  0  0  0  0  0  0  0  0
    2.1168    0.4697    0.0000 N   0  0  0  0  0  0  0  0  0  0  0  0
    2.1920   -0.3569    0.0000 N   0  0  0  0  0  0  0  0  0  0  0  0
    2.8684    0.8078    0.0000 N   0  0  0  0  0  0  0  0  0  0  0  0
    3.4195    0.1816    0.0000 N   0  0  0  0  0  0  0  0  0  0  0  0
    2.0292   -1.8600    0.0000 N   0  0  0  0  0  0  0  0  0  0  0  0
   -2.1669    2.9999    0.0000 C   0  0  0  0  0  0  0  0  0  0  0  0
   -2.9185    1.7097    0.0000 C   0  0  0  0  0  0  0  0  0  0  0  0
   -2.9185    3.4258    0.0000 C   0  0  0  0  0  0  0  0  0  0  0  0
   -3.6575    2.1606    0.0000 C   0  0  0  0  0  0  0  0  0  0  0  0
   -3.6575    2.9748    0.0000 C   0  0  0  0  0  0  0  0  0  0  0  0
   -1.4530    1.7223    0.0000 C   0  0  0  0  0  0  0  0  0  0  0  0
   -0.7390    2.1356    0.0000 C   0  0  0  0  0  0  0  0  0  0  0  0
   -4.3715    1.7473    0.0000 C   0  0  0  0  0  0  0  0  0  0  0  0
   -4.3715    3.3882    0.0000 C   0  0  0  0  0  0  0  0  0  0  0  0
   -5.0854    2.1606    0.0000 C   0  0  0  0  0  0  0  0  0  0  0  0
   -5.0854    2.9748    0.0000 C   0  0  0  0  0  0  0  0  0  0  0  0
   -0.0250    1.7223    0.0000 C   0  0  0  0  0  0  0  0  0  0  0  0
    0.6889    2.1231    0.0000 C   0  0  0  0  0  0  0  0  0  0  0  0
   -0.0250    0.8955    0.0000 C   0  0  0  0  0  0  0  0  0  0  0  0
    1.4028    1.7097    0.0000 C   0  0  0  0  0  0  0  0  0  0  0  0
    0.6889    0.4697    0.0000 C   0  0  0  0  0  0  0  0  0  0  0  0
    1.4028    0.8830    0.0000 C   0  0  0  0  0  0  0  0  0  0  0  0
   -5.7994    0.9206    0.0000 C   0  0  0  0  0  0  0  0  0  0  0  0
   -5.7994    4.2149    0.0000 C   0  0  0  0  0  0  0  0  0  0  0  0
    3.0061   -0.5323    0.0000 C   0  0  0  0  0  0  0  0  0  0  0  0
    3.3318   -1.2839    0.0000 C   0  0  0  0  0  0  0  0  0  0  0  0
    2.8433   -1.9477    0.0000 C   0  0  0  0  0  0  0  0  0  0  0  0
    4.1586   -1.3716    0.0000 C   0  0  0  0  0  0  0  0  0  0  0  0
    3.1815   -2.6993    0.0000 C   0  0  0  0  0  0  0  0  0  0  0  0
    4.4968   -2.1231    0.0000 C   0  0  0  0  0  0  0  0  0  0  0  0
    4.0082   -2.7995    0.0000 C   0  0  0  0  0  0  0  0  0  0  0  0
    1.5406   -2.5239    0.0000 C   0  0  0  0  0  0  0  0  0  0  0  0
    0.7140   -2.4363    0.0000 C   0  0  0  0  0  0  0  0  0  0  0  0
   -0.9269   -2.2609    0.0000 C   0  0  0  0  0  0  0  0  0  0  0  0
   -0.5887   -3.0124    0.0000 C   0  0  0  0  0  0  0  0  0  0  0  0
    0.3883   -1.6847    0.0000 C   0  0  0  0  0  0  0  0  0  0  0  0
   -0.4383   -1.5845    0.0000 C   0  0  0  0  0  0  0  0  0  0  0  0
   -1.7786   -2.1481    0.0000 C   0  0  0  0  0  0  0  0  0  0  0  0
   -1.0897   -3.7139    0.0000 C   0  0  0  0  0  0  0  0  0  0  0  0
   -2.2922   -2.8371    0.0000 C   0  0  0  0  0  0  0  0  0  0  0  0
   -1.9414   -3.6262    0.0000 C   0  0  0  0  0  0  0  0  0  0  0  0
    5.7994   -1.5469    0.0000 C   0  0  0  0  0  0  0  0  0  0  0  0
    3.8454   -4.2149    0.0000 C   0  0  0  0  0  0  0  0  0  0  0  0
    1.8162   -1.3966    0.0000 H   0  0  0  0  0  0  0  0  0  0  0  0
  1 23  1  0  0  0  0
  1 31  1  0  0  0  0
  2 24  1  0  0  0  0
  2 32  1  0  0  0  0
  3 38  1  0  0  0  0
  3 50  1  0  0  0  0
  4 39  1  0  0  0  0
  4 51  1  0  0  0  0
  5 41  1  0  0  0  0
  5 43  1  0  0  0  0
  6 40  2  0  0  0  0
  7 45  2  0  0  0  0
  8 14  1  0  0  0  0
  8 15  1  0  0  0  0
  8 19  1  0  0  0  0
  9 10  1  0  0  0  0
  9 11  1  0  0  0  0
  9 30  1  0  0  0  0
 10 33  2  0  0  0  0
 11 12  2  0  0  0  0
 12 33  1  0  0  0  0
 13 35  1  0  0  0  0
 13 40  1  0  0  0  0
 13 52  1  0  0  0  0
 14 16  1  0  0  0  0
 15 17  1  0  0  0  0
 16 18  1  0  0  0  0
 17 18  1  0  0  0  0
 17 21  2  0  0  0  0
 18 22  2  0  0  0  0
 19 20  1  0  0  0  0
 20 25  1  0  0  0  0
 21 23  1  0  0  0  0
 22 24  1  0  0  0  0
 23 24  2  0  0  0  0
 25 26  2  0  0  0  0
 25 27  1  0  0  0  0
 26 28  1  0  0  0  0
 27 29  2  0  0  0  0
 28 30  2  0  0  0  0
 29 30  1  0  0  0  0
 33 34  1  0  0  0  0
 34 35  1  0  0  0  0
 34 36  2  0  0  0  0
 35 37  2  0  0  0  0
 36 38  1  0  0  0  0
 37 39  1  0  0  0  0
 38 39  2  0  0  0  0
 40 41  1  0  0  0  0
 41 44  2  0  0  0  0
 42 43  1  0  0  0  0
 42 45  1  0  0  0  0
 42 46  2  0  0  0  0
 43 47  2  0  0  0  0
 44 45  1  0  0  0  0
 46 48  1  0  0  0  0
 47 49  1  0  0  0  0
 48 49  2  0  0  0  0
M  END
>  <DATABASE_ID>
DB14070

>  <DATABASE_NAME>
drugbank

>  <SMILES>
[H]N(C(=O)C1=CC(=O)C2=CC=CC=C2O1)C1=CC(OC)=C(OC)C=C1C1=NN(N=N1)C1=CC=C(CCN2CCC3=CC(OC)=C(OC)C=C3C2)C=C1

>  <INCHI_IDENTIFIER>
InChI=1S/C38H36N6O7/c1-47-32-17-24-14-16-43(22-25(24)18-33(32)48-2)15-13-23-9-11-26(12-10-23)44-41-37(40-42-44)28-19-34(49-3)35(50-4)20-29(28)39-38(46)36-21-30(45)27-7-5-6-8-31(27)51-36/h5-12,17-21H,13-16,22H2,1-4H3,(H,39,46)

>  <INCHI_KEY>
AHJUHHDDCJQACA-UHFFFAOYSA-N

>  <FORMULA>
C38H36N6O7

>  <MOLECULAR_WEIGHT>
688.741

>  <EXACT_MASS>
688.264547523

>  <JCHEM_ACCEPTOR_COUNT>
11

>  <JCHEM_ATOM_COUNT>
87

>  <JCHEM_AVERAGE_POLARIZABILITY>
75.31720282560659

>  <JCHEM_BIOAVAILABILITY>
0

>  <JCHEM_DONOR_COUNT>
1

>  <JCHEM_FORMAL_CHARGE>
0

>  <JCHEM_GHOSE_FILTER>
0

>  <JCHEM_IUPAC>
N-[2-(2-{4-[2-(6,7-dimethoxy-1,2,3,4-tetrahydroisoquinolin-2-yl)ethyl]phenyl}-2H-1,2,3,4-tetrazol-5-yl)-4,5-dimethoxyphenyl]-4-oxo-4H-chromene-2-carboxamide

>  <ALOGPS_LOGP>
4.91

>  <JCHEM_LOGP>
5.422099999999999

>  <ALOGPS_LOGS>
-5.16

>  <JCHEM_MDDR_LIKE_RULE>
1

>  <JCHEM_NUMBER_OF_RINGS>
7

>  <JCHEM_PHYSIOLOGICAL_CHARGE>
1

>  <JCHEM_PKA_STRONGEST_ACIDIC>
11.437820273656618

>  <JCHEM_PKA_STRONGEST_BASIC>
8.458346506489956

>  <JCHEM_POLAR_SURFACE_AREA>
139.16

>  <JCHEM_REFRACTIVITY>
216.29919999999996

>  <JCHEM_ROTATABLE_BOND_COUNT>
11

>  <JCHEM_RULE_OF_FIVE>
0

>  <ALOGPS_SOLUBILITY>
4.72e-03 g/l

>  <JCHEM_TRADITIONAL_IUPAC>
N-[2-(2-{4-[2-(6,7-dimethoxy-3,4-dihydro-1H-isoquinolin-2-yl)ethyl]phenyl}-1,2,3,4-tetrazol-5-yl)-4,5-dimethoxyphenyl]-4-oxochromene-2-carboxamide

>  <JCHEM_VEBER_RULE>
0

>  <DRUGBANK_ID>
DB14070

>  <DRUG_GROUPS>
experimental

>  <GENERIC_NAME>
HM-30181

$$$$

 OpenBabel05042401512D

 32 35  0  0  1  0  0  0  0  0999 V2000
   13.6617  -12.0997    0.0000 C   0  0  2  0  0  0  0  0  0  0  0  0
   12.9426  -11.6994    0.0000 C   0  0  1  0  0  0  0  0  0  0  0  0
   14.4054  -11.6923    0.0000 C   0  0  1  0  0  0  0  0  0  0  0  0
   13.6652  -12.9214    0.0000 C   0  0  0  0  0  0  0  0  0  0  0  0
   12.2377  -12.1103    0.0000 C   0  0  2  0  0  0  0  0  0  0  0  0
   12.9391  -10.8812    0.0000 C   0  0  0  0  0  0  0  0  0  0  0  0
   14.3985  -10.8776    0.0000 C   0  0  2  0  0  0  0  0  0  0  0  0
   15.7975  -11.6923    0.0000 C   0  0  0  0  0  0  0  0  0  0  0  0
   12.9532  -13.3429    0.0000 C   0  0  0  0  0  0  0  0  0  0  0  0
   12.2483  -12.9320    0.0000 C   0  0  0  0  0  0  0  0  0  0  0  0
   11.5292  -11.7065    0.0000 C   0  0  0  0  0  0  0  0  0  0  0  0
   12.2341  -11.2956    0.0000 C   0  0  0  0  0  0  0  0  0  0  0  0
   13.6475  -10.4703    0.0000 C   0  0  0  0  0  0  0  0  0  0  0  0
   15.0714  -10.4562    0.0000 C   0  0  2  0  0  0  0  0  0  0  0  0
   14.3913  -10.0204    0.0000 C   0  0  0  0  0  0  0  0  0  0  0  0
   15.7870  -10.8705    0.0000 C   0  0  0  0  0  0  0  0  0  0  0  0
   11.5364  -13.3500    0.0000 C   0  0  0  0  0  0  0  0  0  0  0  0
   10.8174  -12.1173    0.0000 C   0  0  0  0  0  0  0  0  0  0  0  0
   15.0679   -9.5990    0.0000 O   0  0  0  0  0  0  0  0  0  0  0  0
   10.8210  -12.9391    0.0000 C   0  0  0  0  0  0  0  0  0  0  0  0
   10.0877  -13.3642    0.0000 O   0  0  0  0  0  0  0  0  0  0  0  0
   13.6546  -11.2425    0.0000 H   0  0  0  0  0  0  0  0  0  0  0  0
   12.9355  -12.5531    0.0000 H   0  0  0  0  0  0  0  0  0  0  0  0
   14.4020  -12.5388    0.0000 H   0  0  0  0  0  0  0  0  0  0  0  0
   15.7948   -9.1755    0.0000 C   0  0  0  0  0  0  0  0  0  0  0  0
   16.5304   -9.5962    0.0000 C   0  0  0  0  0  0  0  0  0  0  0  0
   15.7915   -8.3335    0.0000 O   0  0  0  0  0  0  0  0  0  0  0  0
   17.2439   -9.1806    0.0000 C   0  0  0  0  0  0  0  0  0  0  0  0
   17.9748   -9.5990    0.0000 C   0  0  0  0  0  0  0  0  0  0  0  0
   18.6907   -9.1820    0.0000 C   0  0  0  0  0  0  0  0  0  0  0  0
   19.4204   -9.5998    0.0000 C   0  0  0  0  0  0  0  0  0  0  0  0
   20.1369   -9.1825    0.0000 C   0  0  0  0  0  0  0  0  0  0  0  0
  1  2  1  0  0  0  0
  1  3  1  0  0  0  0
  1  4  1  0  0  0  0
  1 22  1  1  0  0  0
  2  5  1  0  0  0  0
  2  6  1  0  0  0  0
  2 23  1  6  0  0  0
  3  7  1  0  0  0  0
  3  8  1  0  0  0  0
  3 24  1  6  0  0  0
  4  9  1  0  0  0  0
  5 10  1  0  0  0  0
  5 11  1  0  0  0  0
  5 12  1  1  0  0  0
  6 13  1  0  0  0  0
  7 14  1  0  0  0  0
  7 15  1  1  0  0  0
  7 13  1  0  0  0  0
  8 16  1  0  0  0  0
  9 10  1  0  0  0  0
 10 17  2  0  0  0  0
 11 18  1  0  0  0  0
 14 19  1  1  0  0  0
 14 16  1  0  0  0  0
 17 20  1  0  0  0  0
 18 20  1  0  0  0  0
 19 25  1  0  0  0  0
 20 21  2  0  0  0  0
 25 26  1  0  0  0  0
 25 27  2  0  0  0  0
 26 28  1  0  0  0  0
 28 29  1  0  0  0  0
 29 30  1  0  0  0  0
 30 31  1  0  0  0  0
 31 32  1  0  0  0  0
M  END
>  <DATABASE_ID>
DB13944

>  <DATABASE_NAME>
drugbank

>  <SMILES>
[H][C@@]12CC[C@H](OC(=O)CCCCCC)[C@@]1(C)CC[C@@]1([H])[C@@]2([H])CCC2=CC(=O)CC[C@]12C

>  <INCHI_IDENTIFIER>
InChI=1S/C26H40O3/c1-4-5-6-7-8-24(28)29-23-12-11-21-20-10-9-18-17-19(27)13-15-25(18,2)22(20)14-16-26(21,23)3/h17,20-23H,4-16H2,1-3H3/t20-,21-,22-,23-,25-,26-/m0/s1

>  <INCHI_KEY>
VOCBWIIFXDYGNZ-IXKNJLPQSA-N

>  <FORMULA>
C26H40O3

>  <MOLECULAR_WEIGHT>
400.594

>  <EXACT_MASS>
400.297745146

>  <JCHEM_ACCEPTOR_COUNT>
2

>  <JCHEM_ATOM_COUNT>
69

>  <JCHEM_AVERAGE_POLARIZABILITY>
49.18345966178077

>  <JCHEM_BIOAVAILABILITY>
1

>  <JCHEM_DONOR_COUNT>
0

>  <JCHEM_FORMAL_CHARGE>
0

>  <JCHEM_GHOSE_FILTER>
0

>  <JCHEM_IUPAC>
(1S,3aS,3bR,9aR,9bS,11aS)-9a,11a-dimethyl-7-oxo-1H,2H,3H,3aH,3bH,4H,5H,7H,8H,9H,9aH,9bH,10H,11H,11aH-cyclopenta[a]phenanthren-1-yl heptanoate

>  <ALOGPS_LOGP>
5.11

>  <JCHEM_LOGP>
6.2853592150000015

>  <ALOGPS_LOGS>
-5.94

>  <JCHEM_MDDR_LIKE_RULE>
1

>  <JCHEM_NUMBER_OF_RINGS>
4

>  <JCHEM_PHYSIOLOGICAL_CHARGE>
0

>  <JCHEM_PKA_STRONGEST_ACIDIC>
18.523795671295066

>  <JCHEM_PKA_STRONGEST_BASIC>
-4.814862904769633

>  <JCHEM_POLAR_SURFACE_AREA>
43.370000000000005

>  <JCHEM_REFRACTIVITY>
116.61219999999996

>  <JCHEM_ROTATABLE_BOND_COUNT>
7

>  <JCHEM_RULE_OF_FIVE>
0

>  <ALOGPS_SOLUBILITY>
4.63e-04 g/l

>  <JCHEM_TRADITIONAL_IUPAC>
everone

>  <JCHEM_VEBER_RULE>
0

>  <DRUGBANK_ID>
DB13944

>  <SECONDARY_ACCESSION_NUMBERS>
DBSALT001030; DBSALT001031; DB13945

>  <DRUG_GROUPS>
approved

>  <GENERIC_NAME>
Testosterone enanthate

>  <SYNONYMS>
Testosterone enanthate; Testosterone heptanoate

>  <PRODUCTS>
Delatestryl; Malogex La200 Liq 200mg/ml; Neo Pause Injection; PMS-testosterone Enanthate Inj 200mg/ml USP; Testosterone Enanthate; Testosterone Enanthate Inj 200mg/ml; Testosterone Enanthate Injection, USP; Xyosted

$$$$

 OpenBabel05042401512D

 18 20  0  0  0  0  0  0  0  0999 V2000
   -0.4374    0.7374    0.0000 O   0  0  0  0  0  0  0  0  0  0  0  0
    0.3874    0.8249    0.0000 C   0  0  0  0  0  0  0  0  0  0  0  0
   -0.6124   -0.0708    0.0000 C   0  0  0  0  0  0  0  0  0  0  0  0
    0.1082   -0.4874    0.0000 C   0  0  0  0  0  0  0  0  0  0  0  0
    0.7249    0.0667    0.0000 C   0  0  0  0  0  0  0  0  0  0  0  0
   -1.3249   -0.4833    0.0000 C   0  0  0  0  0  0  0  0  0  0  0  0
   -1.3249   -1.3124    0.0000 C   0  0  0  0  0  0  0  0  0  0  0  0
    0.1082   -1.3124    0.0000 C   0  0  0  0  0  0  0  0  0  0  0  0
   -0.6124   -1.7248    0.0000 C   0  0  0  0  0  0  0  0  0  0  0  0
    1.6331    2.9623    0.0000 N   0  0  0  0  0  0  0  0  0  0  0  0
    0.7999    1.5374    0.0000 C   0  0  0  0  0  0  0  0  0  0  0  0
   -2.0374   -0.0749    0.0000 Br  0  0  0  0  0  0  0  0  0  0  0  0
   -0.6124   -2.5498    0.0000 O   0  0  0  0  0  0  0  0  0  0  0  0
    2.0374    2.2415    0.0000 C   0  0  0  0  0  0  0  0  0  0  0  0
    0.8082    2.9623    0.0000 C   0  0  0  0  0  0  0  0  0  0  0  0
    1.6249    1.5290    0.0000 C   0  0  0  0  0  0  0  0  0  0  0  0
    0.3874    2.2498    0.0000 C   0  0  0  0  0  0  0  0  0  0  0  0
   -1.3249   -2.9623    0.0000 C   0  0  0  0  0  0  0  0  0  0  0  0
  2  1  1  0  0  0  0
  3  1  1  0  0  0  0
  4  3  2  0  0  0  0
  5  2  2  0  0  0  0
  5  4  1  0  0  0  0
  6  3  1  0  0  0  0
  7  6  2  0  0  0  0
  8  4  1  0  0  0  0
  9  7  1  0  0  0  0
  9  8  2  0  0  0  0
 10 15  1  0  0  0  0
 10 14  1  0  0  0  0
 11  2  1  0  0  0  0
 12  6  1  0  0  0  0
 13  9  1  0  0  0  0
 14 16  1  0  0  0  0
 15 17  1  0  0  0  0
 16 11  1  0  0  0  0
 17 11  1  0  0  0  0
 18 13  1  0  0  0  0
M  END
>  <DATABASE_ID>
DB13876

>  <DATABASE_NAME>
drugbank

>  <SMILES>
COC1=CC2=C(OC(=C2)C2CCNCC2)C(Br)=C1

>  <INCHI_IDENTIFIER>
InChI=1S/C14H16BrNO2/c1-17-11-6-10-7-13(9-2-4-16-5-3-9)18-14(10)12(15)8-11/h6-9,16H,2-5H2,1H3

>  <INCHI_KEY>
WZXHSWVDAYOFPE-UHFFFAOYSA-N

>  <FORMULA>
C14H16BrNO2

>  <MOLECULAR_WEIGHT>
310.191

>  <EXACT_MASS>
309.036442

>  <JCHEM_ACCEPTOR_COUNT>
2

>  <JCHEM_ATOM_COUNT>
34

>  <JCHEM_AVERAGE_POLARIZABILITY>
29.916529853844242

>  <JCHEM_BIOAVAILABILITY>
1

>  <JCHEM_DONOR_COUNT>
1

>  <JCHEM_FORMAL_CHARGE>
0

>  <JCHEM_GHOSE_FILTER>
1

>  <JCHEM_IUPAC>
4-(7-bromo-5-methoxy-1-benzofuran-2-yl)piperidine

>  <ALOGPS_LOGP>
3.36

>  <JCHEM_LOGP>
2.690562883

>  <ALOGPS_LOGS>
-3.98

>  <JCHEM_MDDR_LIKE_RULE>
0

>  <JCHEM_NUMBER_OF_RINGS>
3

>  <JCHEM_PHYSIOLOGICAL_CHARGE>
1

>  <JCHEM_PKA_STRONGEST_BASIC>
9.901400134897422

>  <JCHEM_POLAR_SURFACE_AREA>
34.400000000000006

>  <JCHEM_REFRACTIVITY>
74.3606

>  <JCHEM_ROTATABLE_BOND_COUNT>
2

>  <JCHEM_RULE_OF_FIVE>
1

>  <ALOGPS_SOLUBILITY>
3.21e-02 g/l

>  <JCHEM_TRADITIONAL_IUPAC>
brofaromine

>  <JCHEM_VEBER_RULE>
1

>  <DRUGBANK_ID>
DB13876

>  <DRUG_GROUPS>
experimental

>  <GENERIC_NAME>
Brofaromine

>  <SYNONYMS>
Brofaromine; Consonar

$$$$

 OpenBabel05042401512D

 28 31  0  0  0  0  0  0  0  0999 V2000
   -2.5006   -0.8250    0.0000 C   0  0  0  0  0  0  0  0  0  0  0  0
   -3.2151   -0.4125    0.0000 C   0  0  0  0  0  0  0  0  0  0  0  0
   -3.9296   -0.8250    0.0000 C   0  0  0  0  0  0  0  0  0  0  0  0
   -3.9296   -1.6500    0.0000 C   0  0  0  0  0  0  0  0  0  0  0  0
   -3.2151   -2.0625    0.0000 C   0  0  0  0  0  0  0  0  0  0  0  0
   -2.5006   -1.6500    0.0000 C   0  0  0  0  0  0  0  0  0  0  0  0
   -1.7862   -2.0625    0.0000 S   0  0  0  0  0  0  0  0  0  0  0  0
   -1.0716   -1.6500    0.0000 C   0  0  0  0  0  0  0  0  0  0  0  0
   -1.0716   -0.8250    0.0000 C   0  0  0  0  0  0  0  0  0  0  0  0
   -1.7862   -0.4125    0.0000 C   0  0  0  0  0  0  0  0  0  0  0  0
   -0.3572   -0.4125    0.0000 C   0  0  0  0  0  0  0  0  0  0  0  0
   -0.3572   -2.0625    0.0000 C   0  0  0  0  0  0  0  0  0  0  0  0
    0.3572   -1.6500    0.0000 C   0  0  0  0  0  0  0  0  0  0  0  0
    0.3572   -0.8250    0.0000 C   0  0  0  0  0  0  0  0  0  0  0  0
   -1.7862    0.4125    0.0000 C   0  0  0  0  0  0  0  0  0  0  0  0
   -1.0716    0.8250    0.0000 C   0  0  0  0  0  0  0  0  0  0  0  0
   -0.3573    0.4125    0.0000 C   0  0  0  0  0  0  0  0  0  0  0  0
    0.3571    0.8250    0.0000 N   0  0  0  0  0  0  0  0  0  0  0  0
    1.0716    2.0625    0.0000 C   0  0  0  0  0  0  0  0  0  0  0  0
    0.3571    1.6500    0.0000 C   0  0  0  0  0  0  0  0  0  0  0  0
    1.0716    0.4125    0.0000 C   0  0  0  0  0  0  0  0  0  0  0  0
    1.7860    0.8250    0.0000 C   0  0  0  0  0  0  0  0  0  0  0  0
    1.7860    1.6500    0.0000 N   0  0  0  0  0  0  0  0  0  0  0  0
    2.5005    2.0625    0.0000 C   0  0  0  0  0  0  0  0  0  0  0  0
    3.2151    1.6500    0.0000 C   0  0  0  0  0  0  0  0  0  0  0  0
    3.9296    2.0625    0.0000 O   0  0  0  0  0  0  0  0  0  0  0  0
    1.0716   -0.4125    0.0000 Cl  0  0  0  0  0  0  0  0  0  0  0  0
   -2.5007    0.8250    0.0000 H   0  0  0  0  0  0  0  0  0  0  0  0
  1  2  1  0  0  0  0
  1  6  2  0  0  0  0
  1 10  1  0  0  0  0
  2  3  2  0  0  0  0
  3  4  1  0  0  0  0
  4  5  2  0  0  0  0
  5  6  1  0  0  0  0
  6  7  1  0  0  0  0
  7  8  1  0  0  0  0
  8  9  2  0  0  0  0
  8 12  1  0  0  0  0
  9 10  1  0  0  0  0
 10 15  2  0  0  0  0
 11  9  1  0  0  0  0
 11 14  2  0  0  0  0
 12 13  2  0  0  0  0
 13 14  1  0  0  0  0
 14 27  1  0  0  0  0
 15 16  1  0  0  0  0
 15 28  1  0  0  0  0
 16 17  1  0  0  0  0
 17 18  1  0  0  0  0
 18 21  1  0  0  0  0
 19 20  1  0  0  0  0
 19 23  1  0  0  0  0
 20 18  1  0  0  0  0
 21 22  1  0  0  0  0
 22 23  1  0  0  0  0
 23 24  1  0  0  0  0
 24 25  1  0  0  0  0
 25 26  1  0  0  0  0
M  END
>  <DATABASE_ID>
DB13841

>  <DATABASE_NAME>
drugbank

>  <SMILES>
[H]C(CCN1CCN(CCO)CC1)=C1C2=C(SC3=C1C=C(Cl)C=C3)C=CC=C2

>  <INCHI_IDENTIFIER>
InChI=1S/C22H25ClN2OS/c23-17-7-8-22-20(16-17)18(19-4-1-2-6-21(19)27-22)5-3-9-24-10-12-25(13-11-24)14-15-26/h1-2,4-8,16,26H,3,9-15H2

>  <INCHI_KEY>
WFPIAZLQTJBIFN-UHFFFAOYSA-N

>  <FORMULA>
C22H25ClN2OS

>  <MOLECULAR_WEIGHT>
400.97

>  <EXACT_MASS>
400.1376123

>  <JCHEM_ACCEPTOR_COUNT>
3

>  <JCHEM_ATOM_COUNT>
52

>  <JCHEM_AVERAGE_POLARIZABILITY>
45.29350965956634

>  <JCHEM_BIOAVAILABILITY>
1

>  <JCHEM_DONOR_COUNT>
1

>  <JCHEM_FORMAL_CHARGE>
0

>  <JCHEM_GHOSE_FILTER>
1

>  <JCHEM_IUPAC>
2-{4-[3-(2-chloro-9H-thioxanthen-9-ylidene)propyl]piperazin-1-yl}ethan-1-ol

>  <ALOGPS_LOGP>
4.46

>  <JCHEM_LOGP>
4.22298393

>  <ALOGPS_LOGS>
-5.19

>  <JCHEM_MDDR_LIKE_RULE>
0

>  <JCHEM_NUMBER_OF_RINGS>
4

>  <JCHEM_PHYSIOLOGICAL_CHARGE>
1

>  <JCHEM_PKA_STRONGEST_ACIDIC>
15.593097839126461

>  <JCHEM_PKA_STRONGEST_BASIC>
8.027568302243756

>  <JCHEM_POLAR_SURFACE_AREA>
26.71

>  <JCHEM_REFRACTIVITY>
127.00029999999995

>  <JCHEM_ROTATABLE_BOND_COUNT>
5

>  <JCHEM_RULE_OF_FIVE>
1

>  <ALOGPS_SOLUBILITY>
2.60e-03 g/l

>  <JCHEM_TRADITIONAL_IUPAC>
clopenthixol

>  <JCHEM_VEBER_RULE>
1

>  <DRUGBANK_ID>
DB13841

>  <DRUG_GROUPS>
experimental

>  <GENERIC_NAME>
Clopenthixol

>  <SYNONYMS>
4-(3-(2-Chloro-9H-thioxanthen-9-ylidene)propyl)-1-piperazineethanol; 4-(3-(2-Chlorothioxanthen-9-ylidene)propyl)-1-piperazineethanol; Chlorpenthixol; Clopenthixol; Clopenthixolum; Clopentixol; Sordinol

$$$$

 OpenBabel05042401512D

 23 22  0  0  1  0  0  0  0  0999 V2000
    0.7013   -0.6616    0.0000 C   0  0  0  0  0  0  0  0  0  0  0  0
   -0.1237   -0.6616    0.0000 C   0  0  3  0  0  0  0  0  0  0  0  0
   -0.3786    0.1230    0.0000 N   0  0  0  0  0  0  0  0  0  0  0  0
    0.2888    0.6079    0.0000 C   0  0  3  0  0  0  0  0  0  0  0  0
    0.9563    0.1230    0.0000 S   0  0  0  0  0  0  0  0  0  0  0  0
    0.2888    1.4329    0.0000 C   0  0  0  0  0  0  0  0  0  0  0  0
    1.0033    1.8454    0.0000 O   0  0  0  0  0  0  0  0  0  0  0  0
   -0.4256    1.8454    0.0000 O   0  0  0  0  0  0  0  0  0  0  0  0
   -0.6086   -1.3290    0.0000 C   0  0  0  0  0  0  0  0  0  0  0  0
   -0.2730   -2.0827    0.0000 O   0  0  0  0  0  0  0  0  0  0  0  0
   -1.4291   -1.2428    0.0000 O   0  0  0  0  0  0  0  0  0  0  0  0
    5.6290    0.2750    0.0000 C   0  0  0  0  0  0  0  0  0  0  0  0
    4.9146   -0.1375    0.0000 C   0  0  0  0  0  0  0  0  0  0  0  0
    4.2001    0.2750    0.0000 C   0  0  1  0  0  0  0  0  0  0  0  0
    3.4856   -0.1375    0.0000 C   0  0  0  0  0  0  0  0  0  0  0  0
    2.7712    0.2750    0.0000 O   0  0  0  0  0  0  0  0  0  0  0  0
    3.4856   -0.9625    0.0000 O   0  0  0  0  0  0  0  0  0  0  0  0
    4.2001    1.1000    0.0000 N   0  0  0  0  0  0  0  0  0  0  0  0
    6.3435   -0.1375    0.0000 C   0  0  0  0  0  0  0  0  0  0  0  0
    7.0580    0.2750    0.0000 N   0  0  0  0  0  0  0  0  0  0  0  0
    7.7725   -0.1375    0.0000 C   0  0  0  0  0  0  0  0  0  0  0  0
    8.4869    0.2750    0.0000 N   0  0  0  0  0  0  0  0  0  0  0  0
    7.7725   -0.9625    0.0000 N   0  0  0  0  0  0  0  0  0  0  0  0
  1  2  1  0  0  0  0
  1  5  1  0  0  0  0
  2  3  1  0  0  0  0
  2  9  1  0  0  0  0
  3  4  1  0  0  0  0
  4  5  1  0  0  0  0
  4  6  1  0  0  0  0
  6  7  2  0  0  0  0
  6  8  1  0  0  0  0
  9 10  2  0  0  0  0
  9 11  1  0  0  0  0
 12 13  1  0  0  0  0
 12 19  1  0  0  0  0
 14 13  1  1  0  0  0
 14 15  1  0  0  0  0
 14 18  1  0  0  0  0
 15 16  2  0  0  0  0
 15 17  1  0  0  0  0
 19 20  1  0  0  0  0
 20 21  1  0  0  0  0
 21 22  2  0  0  0  0
 21 23  1  0  0  0  0
M  END
>  <DATABASE_ID>
DB13748

>  <DATABASE_NAME>
drugbank

>  <SMILES>
OC(=O)C1CSC(N1)C(O)=O.N[C@@H](CCCNC(N)=N)C(O)=O

>  <INCHI_IDENTIFIER>
InChI=1S/C6H14N4O2.C5H7NO4S/c7-4(5(11)12)2-1-3-10-6(8)9;7-4(8)2-1-11-3(6-2)5(9)10/h4H,1-3,7H2,(H,11,12)(H4,8,9,10);2-3,6H,1H2,(H,7,8)(H,9,10)/t4-;/m0./s1

>  <INCHI_KEY>
LUCWYYXUZVULSK-WCCKRBBISA-N

>  <FORMULA>
C11H21N5O6S

>  <MOLECULAR_WEIGHT>
351.38

>  <EXACT_MASS>
351.12125459

>  <JCHEM_ACCEPTOR_COUNT>
6

>  <JCHEM_ATOM_COUNT>
44

>  <JCHEM_AVERAGE_POLARIZABILITY>
17.78653950562778

>  <JCHEM_BIOAVAILABILITY>
1

>  <JCHEM_DONOR_COUNT>
5

>  <JCHEM_FORMAL_CHARGE>
0

>  <JCHEM_GHOSE_FILTER>
0

>  <JCHEM_IUPAC>
(2S)-2-amino-5-carbamimidamidopentanoic acid; 1,3-thiazolidine-2,4-dicarboxylic acid

>  <ALOGPS_LOGP>
-2.03

>  <JCHEM_LOGP>
-3.1559373774200568

>  <ALOGPS_LOGS>
-0.93

>  <JCHEM_MDDR_LIKE_RULE>
0

>  <JCHEM_NUMBER_OF_RINGS>
1

>  <JCHEM_PHYSIOLOGICAL_CHARGE>
1

>  <JCHEM_PKA_STRONGEST_ACIDIC>
2.4118378885304885

>  <JCHEM_PKA_STRONGEST_BASIC>
12.41100429474531

>  <JCHEM_POLAR_SURFACE_AREA>
125.21999999999998

>  <JCHEM_REFRACTIVITY>
53.9231

>  <JCHEM_ROTATABLE_BOND_COUNT>
7

>  <JCHEM_RULE_OF_FIVE>
1

>  <ALOGPS_SOLUBILITY>
2.06e+01 g/l

>  <JCHEM_TRADITIONAL_IUPAC>
L-arginine; tidiacic

>  <JCHEM_VEBER_RULE>
0

>  <DRUGBANK_ID>
DB13748

>  <DRUG_GROUPS>
experimental

>  <GENERIC_NAME>
Tidiacic arginine

$$$$

 OpenBabel05042401512D

 16 17  0  0  0  0  0  0  0  0999 V2000
    1.3718    3.3620    0.0000 C   0  0  0  0  0  0  0  0  0  0  0  0
    1.6268    4.1466    0.0000 C   0  0  0  0  0  0  0  0  0  0  0  0
    0.5468    3.3620    0.0000 C   0  0  0  0  0  0  0  0  0  0  0  0
    0.6574    7.9635    0.0000 C   0  0  0  0  0  0  0  0  0  0  0  0
    0.9593    4.6315    0.0000 C   0  0  0  0  0  0  0  0  0  0  0  0
   -0.1676    7.9635    0.0000 C   0  0  0  0  0  0  0  0  0  0  0  0
    0.9593    5.4565    0.0000 C   0  0  0  0  0  0  0  0  0  0  0  0
    0.2449    6.6940    0.0000 C   0  0  0  0  0  0  0  0  0  0  0  0
    0.9123    7.1789    0.0000 N   0  0  0  0  0  0  0  0  0  0  0  0
    0.2449    5.8690    0.0000 N   0  0  0  0  0  0  0  0  0  0  0  0
   -0.6526    8.6310    0.0000 N   0  0  0  0  0  0  0  0  0  0  0  0
    1.6738    5.8690    0.0000 O   0  0  0  0  0  0  0  0  0  0  0  0
   -1.4730    8.5448    0.0000 O   0  0  0  0  0  0  0  0  0  0  0  0
   -0.3170    9.3847    0.0000 O   0  0  0  0  0  0  0  0  0  0  0  0
    0.2919    4.1466    0.0000 S   0  0  0  0  0  0  0  0  0  0  0  0
   -0.4226    7.1789    0.0000 S   0  0  0  0  0  0  0  0  0  0  0  0
  2  1  1  0  0  0  0
  3  1  2  0  0  0  0
  5  2  2  0  0  0  0
  6  4  2  0  0  0  0
  7  5  1  0  0  0  0
  9  4  1  0  0  0  0
  9  8  2  0  0  0  0
 10  7  1  0  0  0  0
 10  8  1  0  0  0  0
 11  6  1  0  0  0  0
 12  7  2  0  0  0  0
 13 11  2  0  0  0  0
 14 11  2  0  0  0  0
 15  3  1  0  0  0  0
 15  5  1  0  0  0  0
 16  6  1  0  0  0  0
 16  8  1  0  0  0  0
M  END
>  <DATABASE_ID>
DB13659

>  <DATABASE_NAME>
drugbank

>  <SMILES>
O=C(NC1=NC=C(S1)N(=O)=O)C1=CC=CS1

>  <INCHI_IDENTIFIER>
InChI=1S/C8H5N3O3S2/c12-7(5-2-1-3-15-5)10-8-9-4-6(16-8)11(13)14/h1-4H,(H,9,10,12)

>  <INCHI_KEY>
ZLOXYEZYWCTXHU-UHFFFAOYSA-N

>  <FORMULA>
C8H5N3O3S2

>  <MOLECULAR_WEIGHT>
255.27

>  <EXACT_MASS>
254.977233381

>  <JCHEM_ACCEPTOR_COUNT>
4

>  <JCHEM_ATOM_COUNT>
21

>  <JCHEM_AVERAGE_POLARIZABILITY>
22.932380004010945

>  <JCHEM_BIOAVAILABILITY>
1

>  <JCHEM_DONOR_COUNT>
1

>  <JCHEM_FORMAL_CHARGE>
0

>  <JCHEM_GHOSE_FILTER>
1

>  <JCHEM_IUPAC>
N-(5-nitro-1,3-thiazol-2-yl)thiophene-2-carboxamide

>  <ALOGPS_LOGP>
2.13

>  <JCHEM_LOGP>
2.4270349409999996

>  <ALOGPS_LOGS>
-3.09

>  <JCHEM_MDDR_LIKE_RULE>
0

>  <JCHEM_NUMBER_OF_RINGS>
2

>  <JCHEM_PHYSIOLOGICAL_CHARGE>
0

>  <JCHEM_PKA_STRONGEST_ACIDIC>
10.075433559114943

>  <JCHEM_PKA_STRONGEST_BASIC>
-4.226805005401068

>  <JCHEM_POLAR_SURFACE_AREA>
87.81

>  <JCHEM_REFRACTIVITY>
59.64770000000001

>  <JCHEM_ROTATABLE_BOND_COUNT>
3

>  <JCHEM_RULE_OF_FIVE>
1

>  <ALOGPS_SOLUBILITY>
2.10e-01 g/l

>  <JCHEM_TRADITIONAL_IUPAC>
atrican

>  <JCHEM_VEBER_RULE>
0

>  <DRUGBANK_ID>
DB13659

>  <DRUG_GROUPS>
experimental

>  <GENERIC_NAME>
Tenonitrozole

>  <SYNONYMS>
Tenonitrozole

$$$$

 OpenBabel05042401512D

 18 20  0  0  1  0  0  0  0  0999 V2000
    3.3523    1.9354    0.0000 C   0  0  0  0  0  0  0  0  0  0  0  0
    3.3523    1.1104    0.0000 C   0  0  0  0  0  0  0  0  0  0  0  0
    2.6378    0.6979    0.0000 C   0  0  0  0  0  0  0  0  0  0  0  0
    1.9233    1.1104    0.0000 C   0  0  0  0  0  0  0  0  0  0  0  0
    1.9233    1.9354    0.0000 C   0  0  0  0  0  0  0  0  0  0  0  0
    2.6378    2.3479    0.0000 C   0  0  0  0  0  0  0  0  0  0  0  0
    1.1387    2.1904    0.0000 C   0  0  0  0  0  0  0  0  0  0  0  0
    0.6538    1.5229    0.0000 C   0  0  0  0  0  0  0  0  0  0  0  0
    1.1387    0.8555    0.0000 O   0  0  0  0  0  0  0  0  0  0  0  0
   -0.1712    1.5229    0.0000 C   0  0  3  0  0  0  0  0  0  0  0  0
   -0.5837    2.2374    0.0000 C   0  0  0  0  0  0  0  0  0  0  0  0
   -1.4087    2.2374    0.0000 C   0  0  0  0  0  0  0  0  0  0  0  0
   -1.8212    2.9519    0.0000 C   0  0  0  0  0  0  0  0  0  0  0  0
   -1.4087    3.6664    0.0000 C   0  0  0  0  0  0  0  0  0  0  0  0
   -0.5837    3.6664    0.0000 C   0  0  0  0  0  0  0  0  0  0  0  0
   -0.1712    2.9519    0.0000 C   0  0  0  0  0  0  0  0  0  0  0  0
   -1.8212    4.3808    0.0000 Cl  0  0  0  0  0  0  0  0  0  0  0  0
   -0.5837    0.8085    0.0000 O   0  0  0  0  0  0  0  0  0  0  0  0
  1  2  2  0  0  0  0
  1  6  1  0  0  0  0
  2  3  1  0  0  0  0
  3  4  2  0  0  0  0
  4  5  1  0  0  0  0
  4  9  1  0  0  0  0
  5  6  2  0  0  0  0
  5  7  1  0  0  0  0
  7  8  2  0  0  0  0
  8  9  1  0  0  0  0
  8 10  1  0  0  0  0
 10 11  1  0  0  0  0
 10 18  1  0  0  0  0
 11 12  2  0  0  0  0
 11 16  1  0  0  0  0
 12 13  1  0  0  0  0
 13 14  2  0  0  0  0
 14 15  1  0  0  0  0
 14 17  1  0  0  0  0
 15 16  2  0  0  0  0
M  END
>  <DATABASE_ID>
DB13291

>  <DATABASE_NAME>
drugbank

>  <SMILES>
OC(C1=CC2=CC=CC=C2O1)C1=CC=C(Cl)C=C1

>  <INCHI_IDENTIFIER>
InChI=1S/C15H11ClO2/c16-12-7-5-10(6-8-12)15(17)14-9-11-3-1-2-4-13(11)18-14/h1-9,15,17H

>  <INCHI_KEY>
KBFBRIPYVVGWRS-UHFFFAOYSA-N

>  <FORMULA>
C15H11ClO2

>  <MOLECULAR_WEIGHT>
258.7

>  <EXACT_MASS>
258.0447573

>  <JCHEM_ACCEPTOR_COUNT>
1

>  <JCHEM_ATOM_COUNT>
29

>  <JCHEM_AVERAGE_POLARIZABILITY>
26.684840241620613

>  <JCHEM_BIOAVAILABILITY>
1

>  <JCHEM_DONOR_COUNT>
1

>  <JCHEM_FORMAL_CHARGE>
0

>  <JCHEM_GHOSE_FILTER>
1

>  <JCHEM_IUPAC>
(1-benzofuran-2-yl)(4-chlorophenyl)methanol

>  <ALOGPS_LOGP>
3.99

>  <JCHEM_LOGP>
3.6733054366666664

>  <ALOGPS_LOGS>
-4.14

>  <JCHEM_MDDR_LIKE_RULE>
0

>  <JCHEM_NUMBER_OF_RINGS>
3

>  <JCHEM_PHYSIOLOGICAL_CHARGE>
0

>  <JCHEM_PKA_STRONGEST_ACIDIC>
12.632482735989711

>  <JCHEM_PKA_STRONGEST_BASIC>
-2.984669390461755

>  <JCHEM_POLAR_SURFACE_AREA>
33.370000000000005

>  <JCHEM_REFRACTIVITY>
70.6801

>  <JCHEM_ROTATABLE_BOND_COUNT>
2

>  <JCHEM_RULE_OF_FIVE>
1

>  <ALOGPS_SOLUBILITY>
1.88e-02 g/l

>  <JCHEM_TRADITIONAL_IUPAC>
cloridarol

>  <JCHEM_VEBER_RULE>
1

>  <DRUGBANK_ID>
DB13291

>  <DRUG_GROUPS>
experimental

>  <GENERIC_NAME>
Cloridarol

>  <SYNONYMS>
Cloridarol

$$$$

 OpenBabel05042401512D

 34 31  0  0  0  0  0  0  0  0999 V2000
   -9.9984   -0.7341    0.0000 C   0  0  0  0  0  0  0  0  0  0  0  0
   -9.3203   -0.2643    0.0000 C   0  0  0  0  0  0  0  0  0  0  0  0
   -8.5743   -0.6167    0.0000 C   0  0  0  0  0  0  0  0  0  0  0  0
   -7.8962   -0.1468    0.0000 C   0  0  0  0  0  0  0  0  0  0  0  0
   -7.1502   -0.4992    0.0000 C   0  0  0  0  0  0  0  0  0  0  0  0
   -6.4721   -0.0294    0.0000 C   0  0  0  0  0  0  0  0  0  0  0  0
   -5.7261   -0.3817    0.0000 C   0  0  0  0  0  0  0  0  0  0  0  0
   -5.0479    0.0881    0.0000 C   0  0  0  0  0  0  0  0  0  0  0  0
   -4.3020   -0.2643    0.0000 C   0  0  0  0  0  0  0  0  0  0  0  0
   -3.6238    0.2056    0.0000 C   0  0  0  0  0  0  0  0  0  0  0  0
   -2.8779   -0.1468    0.0000 C   0  0  0  0  0  0  0  0  0  0  0  0
   -2.1997    0.3230    0.0000 C   0  0  0  0  0  0  0  0  0  0  0  0
   -1.4538   -0.0294    0.0000 C   0  0  0  0  0  0  0  0  0  0  0  0
   -0.7756    0.4405    0.0000 C   0  0  0  0  0  0  0  0  0  0  0  0
   -0.0297    0.0881    0.0000 C   0  0  0  0  0  0  0  0  0  0  0  0
    0.6485    0.5579    0.0000 C   0  0  0  0  0  0  0  0  0  0  0  0
    1.3944    0.2056    0.0000 C   0  0  0  0  0  0  0  0  0  0  0  0
    2.0726    0.6754    0.0000 C   0  0  0  0  0  0  0  0  0  0  0  0
    2.8185    0.3230    0.0000 N   0  0  0  0  0  0  0  0  0  0  0  0
    3.4967    0.7928    0.0000 C   0  0  0  0  0  0  0  0  0  0  0  0
    4.2426    0.4405    0.0000 C   0  0  0  0  0  0  0  0  0  0  0  0
    4.9208    0.9103    0.0000 C   0  0  0  0  0  0  0  0  0  0  0  0
    5.6668    0.5579    0.0000 N   0  0  0  0  0  0  0  0  0  0  0  0
    6.3449    1.0278    0.0000 C   0  0  0  0  0  0  0  0  0  0  0  0
    7.0909    0.6754    0.0000 C   0  0  0  0  0  0  0  0  0  0  0  0
    7.7690    1.1452    0.0000 O   0  0  0  0  0  0  0  0  0  0  0  0
    5.7346   -0.2643    0.0000 C   0  0  0  0  0  0  0  0  0  0  0  0
    6.4805   -0.6167    0.0000 C   0  0  0  0  0  0  0  0  0  0  0  0
    6.5483   -1.4389    0.0000 O   0  0  0  0  0  0  0  0  0  0  0  0
    2.8864   -0.4992    0.0000 C   0  0  0  0  0  0  0  0  0  0  0  0
    3.6323   -0.8516    0.0000 C   0  0  0  0  0  0  0  0  0  0  0  0
    3.7001   -1.6738    0.0000 O   0  0  0  0  0  0  0  0  0  0  0  0
    9.6547    0.0000    0.0000 F   0  0  0  0  0  0  0  0  0  0  0  0
    0.0000   -3.3238    0.0000 F   0  0  0  0  0  0  0  0  0  0  0  0
  1  2  1  0  0  0  0
  2  3  1  0  0  0  0
  3  4  1  0  0  0  0
  4  5  1  0  0  0  0
  5  6  1  0  0  0  0
  6  7  1  0  0  0  0
  7  8  1  0  0  0  0
  8  9  1  0  0  0  0
  9 10  1  0  0  0  0
 10 11  1  0  0  0  0
 11 12  1  0  0  0  0
 12 13  1  0  0  0  0
 13 14  1  0  0  0  0
 14 15  1  0  0  0  0
 15 16  1  0  0  0  0
 16 17  1  0  0  0  0
 17 18  1  0  0  0  0
 18 19  1  0  0  0  0
 19 20  1  0  0  0  0
 19 30  1  0  0  0  0
 20 21  1  0  0  0  0
 21 22  1  0  0  0  0
 22 23  1  0  0  0  0
 23 24  1  0  0  0  0
 23 27  1  0  0  0  0
 24 25  1  0  0  0  0
 25 26  1  0  0  0  0
 27 28  1  0  0  0  0
 28 29  1  0  0  0  0
 30 31  1  0  0  0  0
 31 32  1  0  0  0  0
M  END
>  <DATABASE_ID>
DB13290

>  <DATABASE_NAME>
drugbank

>  <SMILES>
F.F.CCCCCCCCCCCCCCCCCCN(CCO)CCCN(CCO)CCO

>  <INCHI_IDENTIFIER>
InChI=1S/C27H58N2O3.2FH/c1-2-3-4-5-6-7-8-9-10-11-12-13-14-15-16-17-19-28(22-25-30)20-18-21-29(23-26-31)24-27-32;;/h30-32H,2-27H2,1H3;2*1H

>  <INCHI_KEY>
ZVVSSOQAYNYNPP-UHFFFAOYSA-N

>  <FORMULA>
C27H60F2N2O3

>  <MOLECULAR_WEIGHT>
498.785

>  <EXACT_MASS>
498.457200126

>  <JCHEM_ACCEPTOR_COUNT>
5

>  <JCHEM_ATOM_COUNT>
94

>  <JCHEM_AVERAGE_POLARIZABILITY>
61.93530147990715

>  <JCHEM_BIOAVAILABILITY>
0

>  <JCHEM_DONOR_COUNT>
3

>  <JCHEM_FORMAL_CHARGE>
0

>  <JCHEM_GHOSE_FILTER>
0

>  <JCHEM_IUPAC>
2-({3-[bis(2-hydroxyethyl)amino]propyl}(octadecyl)amino)ethan-1-ol dihydrofluoride

>  <ALOGPS_LOGP>
6.38

>  <JCHEM_LOGP>
5.746328015666665

>  <ALOGPS_LOGS>
-5.43

>  <JCHEM_MDDR_LIKE_RULE>
0

>  <JCHEM_NUMBER_OF_RINGS>
0

>  <JCHEM_PHYSIOLOGICAL_CHARGE>
2

>  <JCHEM_PKA>
15.5932366656696

>  <JCHEM_PKA_STRONGEST_ACIDIC>
15.116001741584675

>  <JCHEM_PKA_STRONGEST_BASIC>
9.719543913012268

>  <JCHEM_POLAR_SURFACE_AREA>
67.17

>  <JCHEM_REFRACTIVITY>
140.03709999999995

>  <JCHEM_ROTATABLE_BOND_COUNT>
27

>  <JCHEM_RULE_OF_FIVE>
0

>  <ALOGPS_SOLUBILITY>
1.70e-03 g/l

>  <JCHEM_TRADITIONAL_IUPAC>
2-({3-[bis(2-hydroxyethyl)amino]propyl}(octadecyl)amino)ethanol dihydrofluoride

>  <JCHEM_VEBER_RULE>
0

>  <DRUGBANK_ID>
DB13290

>  <DRUG_GROUPS>
experimental

>  <GENERIC_NAME>
Olaflur

>  <SYNONYMS>
Olaflur

$$$$

 OpenBabel05042401512D

 25 27  0  0  1  0  0  0  0  0999 V2000
    5.3071   -2.6919    0.0000 C   0  0  0  0  0  0  0  0  0  0  0  0
    4.4821   -2.6919    0.0000 C   0  0  0  0  0  0  0  0  0  0  0  0
    4.2272   -1.9072    0.0000 S   0  0  0  0  0  0  0  0  0  0  0  0
    4.8946   -1.4223    0.0000 C   0  0  0  0  0  0  0  0  0  0  0  0
    5.5620   -1.9072    0.0000 C   0  0  0  0  0  0  0  0  0  0  0  0
    4.8946   -0.5973    0.0000 C   0  0  0  0  0  0  0  0  0  0  0  0
    4.1801   -0.1848    0.0000 O   0  0  0  0  0  0  0  0  0  0  0  0
    5.6091   -0.1848    0.0000 N   0  0  0  0  0  0  0  0  0  0  0  0
    5.6091    0.6402    0.0000 C   0  0  0  0  0  0  0  0  0  0  0  0
    4.8946    1.0527    0.0000 C   0  0  0  0  0  0  0  0  0  0  0  0
    4.8946    1.8777    0.0000 C   0  0  0  0  0  0  0  0  0  0  0  0
    5.6091    2.2902    0.0000 C   0  0  0  0  0  0  0  0  0  0  0  0
    6.3235    1.8777    0.0000 C   0  0  0  0  0  0  0  0  0  0  0  0
    6.3235    1.0527    0.0000 C   0  0  0  0  0  0  0  0  0  0  0  0
    7.0380    0.6402    0.0000 C   0  0  0  0  0  0  0  0  0  0  0  0
    7.7525    1.0527    0.0000 N   0  0  0  0  0  0  0  0  0  0  0  0
    8.4669    0.6402    0.0000 C   0  0  1  0  0  0  0  0  0  0  0  0
    9.1814    1.0527    0.0000 C   0  0  0  0  0  0  0  0  0  0  0  0
    9.8959    0.6402    0.0000 C   0  0  0  0  0  0  0  0  0  0  0  0
    9.8959   -0.1848    0.0000 C   0  0  1  0  0  0  0  0  0  0  0  0
    9.1814   -0.5973    0.0000 C   0  0  0  0  0  0  0  0  0  0  0  0
    8.4669   -0.1848    0.0000 C   0  0  0  0  0  0  0  0  0  0  0  0
   10.6104   -0.5973    0.0000 O   0  0  0  0  0  0  0  0  0  0  0  0
    5.6091    3.1152    0.0000 Br  0  0  0  0  0  0  0  0  0  0  0  0
    4.1801    0.6402    0.0000 Br  0  0  0  0  0  0  0  0  0  0  0  0
  1  2  2  0  0  0  0
  1  5  1  0  0  0  0
  2  3  1  0  0  0  0
  3  4  1  0  0  0  0
  4  5  2  0  0  0  0
  4  6  1  0  0  0  0
  6  7  2  0  0  0  0
  6  8  1  0  0  0  0
  8  9  1  0  0  0  0
  9 10  2  0  0  0  0
  9 14  1  0  0  0  0
 10 11  1  0  0  0  0
 10 25  1  0  0  0  0
 11 12  2  0  0  0  0
 12 13  1  0  0  0  0
 12 24  1  0  0  0  0
 13 14  2  0  0  0  0
 14 15  1  0  0  0  0
 15 16  1  0  0  0  0
 17 16  1  1  0  0  0
 17 18  1  0  0  0  0
 17 22  1  0  0  0  0
 18 19  1  0  0  0  0
 19 20  1  0  0  0  0
 20 21  1  0  0  0  0
 20 23  1  6  0  0  0
 21 22  1  0  0  0  0
M  END
>  <DATABASE_ID>
DB13239

>  <DATABASE_NAME>
drugbank

>  <SMILES>
O[C@H]1CC[C@@H](CC1)NCC1=CC(Br)=CC(Br)=C1NC(=O)C1=CC=CS1

>  <INCHI_IDENTIFIER>
InChI=1S/C18H20Br2N2O2S/c19-12-8-11(10-21-13-3-5-14(23)6-4-13)17(15(20)9-12)22-18(24)16-2-1-7-25-16/h1-2,7-9,13-14,21,23H,3-6,10H2,(H,22,24)/t13-,14-

>  <INCHI_KEY>
SSLHKNBKUBAHJY-HDJSIYSDSA-N

>  <FORMULA>
C18H20Br2N2O2S

>  <MOLECULAR_WEIGHT>
488.24

>  <EXACT_MASS>
485.961225

>  <JCHEM_ACCEPTOR_COUNT>
3

>  <JCHEM_ATOM_COUNT>
45

>  <JCHEM_AVERAGE_POLARIZABILITY>
43.1680924379896

>  <JCHEM_BIOAVAILABILITY>
1

>  <JCHEM_DONOR_COUNT>
3

>  <JCHEM_FORMAL_CHARGE>
0

>  <JCHEM_GHOSE_FILTER>
0

>  <JCHEM_IUPAC>
N-[2,4-dibromo-6-({[(1r,4r)-4-hydroxycyclohexyl]amino}methyl)phenyl]thiophene-2-carboxamide

>  <ALOGPS_LOGP>
4.13

>  <JCHEM_LOGP>
4.486418079666667

>  <ALOGPS_LOGS>
-5.63

>  <JCHEM_MDDR_LIKE_RULE>
0

>  <JCHEM_NUMBER_OF_RINGS>
3

>  <JCHEM_PHYSIOLOGICAL_CHARGE>
1

>  <JCHEM_PKA>
15.256645341229792

>  <JCHEM_PKA_STRONGEST_ACIDIC>
11.225862148944467

>  <JCHEM_PKA_STRONGEST_BASIC>
8.839815300133557

>  <JCHEM_POLAR_SURFACE_AREA>
61.36

>  <JCHEM_REFRACTIVITY>
109.6587

>  <JCHEM_ROTATABLE_BOND_COUNT>
5

>  <JCHEM_RULE_OF_FIVE>
1

>  <ALOGPS_SOLUBILITY>
1.15e-03 g/l

>  <JCHEM_TRADITIONAL_IUPAC>
neltenexine

>  <JCHEM_VEBER_RULE>
0

>  <DRUGBANK_ID>
DB13239

>  <DRUG_GROUPS>
experimental

>  <GENERIC_NAME>
Neltenexine

>  <SYNONYMS>
Neltenexine

$$$$

 OpenBabel05042401512D

 22 20  0  0  1  0  0  0  0  0999 V2000
   -1.0765    1.5502    0.0000 C   0  0  0  0  0  0  0  0  0  0  0  0
   -0.3711    1.9661    0.0000 C   0  0  0  0  0  0  0  0  0  0  0  0
   -1.7962    1.9661    0.0000 C   0  0  0  0  0  0  0  0  0  0  0  0
    0.3412    1.5502    0.0000 C   0  0  1  0  0  0  0  0  0  0  0  0
   -2.5088    1.5502    0.0000 N   0  0  0  0  0  0  0  0  0  0  0  0
    1.0575    1.9661    0.0000 C   0  0  0  0  0  0  0  0  0  0  0  0
    0.3412    0.7328    0.0000 N   0  0  0  0  0  0  0  0  0  0  0  0
   -3.2248    1.9661    0.0000 C   0  0  0  0  0  0  0  0  0  0  0  0
    1.7807    1.5502    0.0000 O   0  0  0  0  0  0  0  0  0  0  0  0
    1.0575    2.8089    0.0000 O   0  0  0  0  0  0  0  0  0  0  0  0
   -3.9374    1.5502    0.0000 N   0  0  0  0  0  0  0  0  0  0  0  0
   -3.2248    2.8089    0.0000 N   0  0  0  0  0  0  0  0  0  0  0  0
    1.7939   -1.5714    0.0000 C   0  0  0  0  0  0  0  0  0  0  0  0
    2.5084   -1.9839    0.0000 C   0  0  1  0  0  0  0  0  0  0  0  0
    1.0795   -1.9839    0.0000 C   0  0  0  0  0  0  0  0  0  0  0  0
    3.2228   -1.5714    0.0000 C   0  0  0  0  0  0  0  0  0  0  0  0
    2.5084   -2.8089    0.0000 N   0  0  0  0  0  0  0  0  0  0  0  0
    0.3649   -1.5714    0.0000 C   0  0  0  0  0  0  0  0  0  0  0  0
    3.9374   -1.9839    0.0000 O   0  0  0  0  0  0  0  0  0  0  0  0
    3.2228   -0.7464    0.0000 O   0  0  0  0  0  0  0  0  0  0  0  0
   -0.3494   -1.9839    0.0000 O   0  0  0  0  0  0  0  0  0  0  0  0
    0.3649   -0.7464    0.0000 O   0  0  0  0  0  0  0  0  0  0  0  0
  1  2  1  0  0  0  0
  1  3  1  0  0  0  0
  2  4  1  0  0  0  0
  3  5  1  0  0  0  0
  4  7  1  1  0  0  0
  4  6  1  0  0  0  0
  5  8  1  0  0  0  0
  6  9  1  0  0  0  0
  6 10  2  0  0  0  0
  8 11  1  0  0  0  0
  8 12  2  0  0  0  0
 13 15  1  0  0  0  0
 14 13  1  1  0  0  0
 14 16  1  0  0  0  0
 14 17  1  0  0  0  0
 15 18  1  0  0  0  0
 16 19  1  0  0  0  0
 16 20  2  0  0  0  0
 18 21  1  0  0  0  0
 18 22  2  0  0  0  0
M  END
>  <DATABASE_ID>
DB13207

>  <DATABASE_NAME>
drugbank

>  <SMILES>
N[C@@H](CCC(O)=O)C(O)=O.N[C@@H](CCCNC(N)=N)C(O)=O

>  <INCHI_IDENTIFIER>
InChI=1S/C6H14N4O2.C5H9NO4/c7-4(5(11)12)2-1-3-10-6(8)9;6-3(5(9)10)1-2-4(7)8/h4H,1-3,7H2,(H,11,12)(H4,8,9,10);3H,1-2,6H2,(H,7,8)(H,9,10)/t4-;3-/m00/s1

>  <INCHI_KEY>
RVEWUBJVAHOGKA-WOYAITHZSA-N

>  <FORMULA>
C11H23N5O6

>  <MOLECULAR_WEIGHT>
321.334

>  <EXACT_MASS>
321.164833481

>  <JCHEM_ACCEPTOR_COUNT>
6

>  <JCHEM_ATOM_COUNT>
45

>  <JCHEM_AVERAGE_POLARIZABILITY>
17.857089653168593

>  <JCHEM_BIOAVAILABILITY>
1

>  <JCHEM_DONOR_COUNT>
5

>  <JCHEM_FORMAL_CHARGE>
0

>  <JCHEM_GHOSE_FILTER>
0

>  <JCHEM_IUPAC>
(2S)-2-amino-5-carbamimidamidopentanoic acid; (2S)-2-aminopentanedioic acid

>  <ALOGPS_LOGP>
-3.49

>  <JCHEM_LOGP>
-3.1559373774200568

>  <ALOGPS_LOGS>
-1.88

>  <JCHEM_MDDR_LIKE_RULE>
0

>  <JCHEM_NUMBER_OF_RINGS>
0

>  <JCHEM_PHYSIOLOGICAL_CHARGE>
1

>  <JCHEM_PKA_STRONGEST_ACIDIC>
2.4118378885304885

>  <JCHEM_PKA_STRONGEST_BASIC>
12.41100429474531

>  <JCHEM_POLAR_SURFACE_AREA>
125.22

>  <JCHEM_REFRACTIVITY>
53.923100000000005

>  <JCHEM_ROTATABLE_BOND_COUNT>
9

>  <JCHEM_RULE_OF_FIVE>
1

>  <ALOGPS_SOLUBILITY>
2.28e+00 g/l

>  <JCHEM_TRADITIONAL_IUPAC>
4-{5-methoxy-2-[(4-methoxy-3,5-dimethylpyridin-2-yl)methanesulfinyl]-1,3-benzodiazol-1-ylsulfonyl}phenoxyacetic acid

>  <JCHEM_VEBER_RULE>
0

>  <DRUGBANK_ID>
DB13207

>  <DRUG_GROUPS>
investigational

>  <GENERIC_NAME>
Arginine glutamate

>  <SYNONYMS>
2-amino-5-(diaminomethylideneamino)pentanoic acid; 2-amino-5-guanidino-pentanoic acid; 2-aminoglutaric acid; Arginine glutamate; L-Arginine L-glutamate

>  <INTERNATIONAL_BRANDS>
Modumate

$$$$

 OpenBabel05042401512D

 41 45  0  0  1  0  0  0  0  0999 V2000
   -2.2664   -5.3533    0.0000 C   0  0  0  0  0  0  0  0  0  0  0  0
   -2.9808   -4.9408    0.0000 N   0  0  0  0  0  0  0  0  0  0  0  0
   -2.9808   -4.1158    0.0000 C   0  0  0  0  0  0  0  0  0  0  0  0
   -2.2664   -3.7033    0.0000 O   0  0  0  0  0  0  0  0  0  0  0  0
   -3.6953   -3.7033    0.0000 C   0  0  0  0  0  0  0  0  0  0  0  0
   -4.4098   -4.1158    0.0000 C   0  0  0  0  0  0  0  0  0  0  0  0
   -5.1243   -3.7033    0.0000 C   0  0  0  0  0  0  0  0  0  0  0  0
   -5.1243   -2.8783    0.0000 C   0  0  0  0  0  0  0  0  0  0  0  0
   -4.4098   -2.4658    0.0000 C   0  0  0  0  0  0  0  0  0  0  0  0
   -3.6953   -2.8783    0.0000 C   0  0  0  0  0  0  0  0  0  0  0  0
   -2.9808   -2.4658    0.0000 N   0  0  0  0  0  0  0  0  0  0  0  0
   -2.9808   -1.6408    0.0000 C   0  0  0  0  0  0  0  0  0  0  0  0
   -3.6953   -1.2283    0.0000 C   0  0  0  0  0  0  0  0  0  0  0  0
   -3.6953   -0.4033    0.0000 C   0  0  0  0  0  0  0  0  0  0  0  0
   -2.9808    0.0092    0.0000 N   0  0  0  0  0  0  0  0  0  0  0  0
   -2.2664   -0.4033    0.0000 C   0  0  0  0  0  0  0  0  0  0  0  0
   -2.2664   -1.2283    0.0000 N   0  0  0  0  0  0  0  0  0  0  0  0
   -1.5519    0.0092    0.0000 N   0  0  0  0  0  0  0  0  0  0  0  0
   -0.8374   -0.4033    0.0000 C   0  0  0  0  0  0  0  0  0  0  0  0
   -0.8374   -1.2283    0.0000 C   0  0  0  0  0  0  0  0  0  0  0  0
   -0.1230   -1.6408    0.0000 C   0  0  0  0  0  0  0  0  0  0  0  0
    0.5915   -1.2283    0.0000 C   0  0  0  0  0  0  0  0  0  0  0  0
    0.5915   -0.4033    0.0000 C   0  0  0  0  0  0  0  0  0  0  0  0
   -0.1230    0.0092    0.0000 C   0  0  0  0  0  0  0  0  0  0  0  0
   -0.1230    0.8342    0.0000 O   0  0  0  0  0  0  0  0  0  0  0  0
   -0.8374    1.2467    0.0000 C   0  0  0  0  0  0  0  0  0  0  0  0
    1.2365    0.1111    0.0000 C   0  0  0  0  0  0  0  0  0  0  0  0
    2.0408   -0.0725    0.0000 C   0  0  0  0  0  0  0  0  0  0  0  0
    2.3988   -0.8158    0.0000 C   0  0  0  0  0  0  0  0  0  0  0  0
    2.0408   -1.5591    0.0000 C   0  0  1  0  0  0  0  0  0  0  0  0
    1.2365   -1.7427    0.0000 C   0  0  0  0  0  0  0  0  0  0  0  0
    2.5552   -2.2041    0.0000 N   0  0  0  0  0  0  0  0  0  0  0  0
    3.3710   -2.0811    0.0000 C   0  0  0  0  0  0  0  0  0  0  0  0
    3.8854   -2.7261    0.0000 C   0  0  0  0  0  0  0  0  0  0  0  0
    3.5840   -3.4941    0.0000 N   0  0  0  0  0  0  0  0  0  0  0  0
    2.7682   -3.6171    0.0000 C   0  0  0  0  0  0  0  0  0  0  0  0
    2.2538   -2.9721    0.0000 C   0  0  0  0  0  0  0  0  0  0  0  0
    4.0984   -4.1391    0.0000 C   0  0  0  0  0  0  0  0  0  0  0  0
    4.9141   -4.0162    0.0000 C   0  0  0  0  0  0  0  0  0  0  0  0
    5.2155   -3.2482    0.0000 O   0  0  0  0  0  0  0  0  0  0  0  0
   -4.4098   -1.6408    0.0000 Cl  0  0  0  0  0  0  0  0  0  0  0  0
  1  2  1  0  0  0  0
  2  3  1  0  0  0  0
  3  4  2  0  0  0  0
  3  5  1  0  0  0  0
  5  6  2  0  0  0  0
  5 10  1  0  0  0  0
  6  7  1  0  0  0  0
  7  8  2  0  0  0  0
  8  9  1  0  0  0  0
  9 10  2  0  0  0  0
 10 11  1  0  0  0  0
 11 12  1  0  0  0  0
 12 13  2  0  0  0  0
 12 17  1  0  0  0  0
 13 14  1  0  0  0  0
 13 41  1  0  0  0  0
 14 15  2  0  0  0  0
 15 16  1  0  0  0  0
 16 17  2  0  0  0  0
 16 18  1  0  0  0  0
 18 19  1  0  0  0  0
 19 20  2  0  0  0  0
 19 24  1  0  0  0  0
 20 21  1  0  0  0  0
 21 22  2  0  0  0  0
 22 23  1  0  0  0  0
 22 31  1  0  0  0  0
 23 24  2  0  0  0  0
 23 27  1  0  0  0  0
 24 25  1  0  0  0  0
 25 26  1  0  0  0  0
 27 28  1  0  0  0  0
 28 29  1  0  0  0  0
 29 30  1  0  0  0  0
 30 31  1  0  0  0  0
 30 32  1  6  0  0  0
 32 33  1  0  0  0  0
 32 37  1  0  0  0  0
 33 34  1  0  0  0  0
 34 35  1  0  0  0  0
 35 36  1  0  0  0  0
 35 38  1  0  0  0  0
 36 37  1  0  0  0  0
 38 39  1  0  0  0  0
 39 40  1  0  0  0  0
M  END
>  <DATABASE_ID>
DB13060

>  <DATABASE_NAME>
drugbank

>  <SMILES>
CNC(=O)C1=CC=CC=C1NC1=C(Cl)C=NC(NC2=CC=C3C[C@H](CCCC3=C2OC)N2CCN(CCO)CC2)=N1

>  <INCHI_IDENTIFIER>
InChI=1S/C30H38ClN7O3/c1-32-29(40)23-7-3-4-9-25(23)34-28-24(31)19-33-30(36-28)35-26-11-10-20-18-21(6-5-8-22(20)27(26)41-2)38-14-12-37(13-15-38)16-17-39/h3-4,7,9-11,19,21,39H,5-6,8,12-18H2,1-2H3,(H,32,40)(H2,33,34,35,36)/t21-/m0/s1

>  <INCHI_KEY>
BCSHRERPHLTPEE-NRFANRHFSA-N

>  <FORMULA>
C30H38ClN7O3

>  <MOLECULAR_WEIGHT>
580.13

>  <EXACT_MASS>
579.2724658

>  <JCHEM_ACCEPTOR_COUNT>
9

>  <JCHEM_ATOM_COUNT>
79

>  <JCHEM_AVERAGE_POLARIZABILITY>
64.00350544383252

>  <JCHEM_BIOAVAILABILITY>
0

>  <JCHEM_DONOR_COUNT>
4

>  <JCHEM_FORMAL_CHARGE>
0

>  <JCHEM_GHOSE_FILTER>
0

>  <JCHEM_IUPAC>
2-[(5-chloro-2-{[(6S)-6-[4-(2-hydroxyethyl)piperazin-1-yl]-1-methoxy-6,7,8,9-tetrahydro-5H-benzo[7]annulen-2-yl]amino}pyrimidin-4-yl)amino]-N-methylbenzamide

>  <ALOGPS_LOGP>
4.04

>  <JCHEM_LOGP>
5.399388774666668

>  <ALOGPS_LOGS>
-4.41

>  <JCHEM_MDDR_LIKE_RULE>
1

>  <JCHEM_NUMBER_OF_RINGS>
5

>  <JCHEM_PHYSIOLOGICAL_CHARGE>
1

>  <JCHEM_PKA>
13.8883160989743

>  <JCHEM_PKA_STRONGEST_ACIDIC>
12.720598238933729

>  <JCHEM_PKA_STRONGEST_BASIC>
8.322084366329129

>  <JCHEM_POLAR_SURFACE_AREA>
114.88

>  <JCHEM_REFRACTIVITY>
163.01919999999996

>  <JCHEM_ROTATABLE_BOND_COUNT>
9

>  <JCHEM_RULE_OF_FIVE>
0

>  <ALOGPS_SOLUBILITY>
2.26e-02 g/l

>  <JCHEM_TRADITIONAL_IUPAC>
2-[(5-chloro-2-{[(6S)-6-[4-(2-hydroxyethyl)piperazin-1-yl]-1-methoxy-6,7,8,9-tetrahydro-5H-benzo[7]annulen-2-yl]amino}pyrimidin-4-yl)amino]-N-methylbenzamide

>  <JCHEM_VEBER_RULE>
0

>  <DRUGBANK_ID>
DB13060

>  <DRUG_GROUPS>
investigational

>  <GENERIC_NAME>
CEP-37440

$$$$

 OpenBabel05042401512D

 41 45  0  0  0  0  0  0  0  0999 V2000
    3.0753    2.7910    0.0000 N   0  0  0  0  0  0  0  0  0  0  0  0
    3.0743    1.9653    0.0000 C   0  0  0  0  0  0  0  0  0  0  0  0
    3.7876    1.5533    0.0000 C   0  0  0  0  0  0  0  0  0  0  0  0
    4.5024    1.9658    0.0000 C   0  0  0  0  0  0  0  0  0  0  0  0
    4.4995    2.7946    0.0000 C   0  0  0  0  0  0  0  0  0  0  0  0
    3.7858    3.2028    0.0000 C   0  0  0  0  0  0  0  0  0  0  0  0
    2.3602    1.5519    0.0000 C   0  0  0  0  0  0  0  0  0  0  0  0
    2.3592    0.7264    0.0000 C   0  0  0  0  0  0  0  0  0  0  0  0
    3.0724    0.3144    0.0000 C   0  0  0  0  0  0  0  0  0  0  0  0
    3.7873    0.7268    0.0000 C   0  0  0  0  0  0  0  0  0  0  0  0
    3.0806   -0.5087    0.0000 N   0  0  0  0  0  0  0  0  0  0  0  0
    2.4087   -0.9944    0.0000 C   0  0  0  0  0  0  0  0  0  0  0  0
    2.6649   -1.7809    0.0000 C   0  0  0  0  0  0  0  0  0  0  0  0
    3.4923   -1.7809    0.0000 C   0  0  0  0  0  0  0  0  0  0  0  0
    3.7484   -0.9944    0.0000 N   0  0  0  0  0  0  0  0  0  0  0  0
   -0.4358   -1.0039    0.0000 C   0  0  0  0  0  0  0  0  0  0  0  0
    0.2751   -0.5924    0.0000 N   0  0  0  0  0  0  0  0  0  0  0  0
    0.9861   -0.9997    0.0000 C   0  0  0  0  0  0  0  0  0  0  0  0
    1.6970   -0.5882    0.0000 N   0  0  0  0  0  0  0  0  0  0  0  0
   -1.8598   -1.0075    0.0000 C   0  0  0  0  0  0  0  0  0  0  0  0
   -1.8610   -1.8332    0.0000 C   0  0  0  0  0  0  0  0  0  0  0  0
   -1.1478   -2.2452    0.0000 C   0  0  0  0  0  0  0  0  0  0  0  0
   -0.4329   -1.8327    0.0000 C   0  0  0  0  0  0  0  0  0  0  0  0
   -1.1496   -0.5956    0.0000 C   0  0  0  0  0  0  0  0  0  0  0  0
   -3.2808   -1.8410    0.0000 C   0  0  0  0  0  0  0  0  0  0  0  0
   -2.5699   -2.2485    0.0000 O   0  0  0  0  0  0  0  0  0  0  0  0
   -4.7078   -1.0159    0.0000 N   0  0  0  0  0  0  0  0  0  0  0  0
   -4.7089   -1.8415    0.0000 C   0  0  0  0  0  0  0  0  0  0  0  0
   -3.9957   -2.2534    0.0000 C   0  0  0  0  0  0  0  0  0  0  0  0
   -3.2836   -1.0123    0.0000 C   0  0  0  0  0  0  0  0  0  0  0  0
   -3.9975   -0.6041    0.0000 C   0  0  0  0  0  0  0  0  0  0  0  0
   -4.0038    0.2230    0.0000 C   0  0  0  0  0  0  0  0  0  0  0  0
   -3.2928    0.6387    0.0000 N   0  0  0  0  0  0  0  0  0  0  0  0
   -2.5819    0.2272    0.0000 C   0  0  0  0  0  0  0  0  0  0  0  0
   -4.7188    0.6346    0.0000 O   0  0  0  0  0  0  0  0  0  0  0  0
    0.2743   -2.2425    0.0000 F   0  0  0  0  0  0  0  0  0  0  0  0
    0.9812   -1.8225    0.0000 O   0  0  0  0  0  0  0  0  0  0  0  0
    3.8956   -2.4919    0.0000 C   0  0  0  0  0  0  0  0  0  0  0  0
    3.4798   -3.2028    0.0000 C   0  0  0  0  0  0  0  0  0  0  0  0
    4.7188   -2.4919    0.0000 C   0  0  0  0  0  0  0  0  0  0  0  0
    4.3031   -3.2028    0.0000 C   0  0  0  0  0  0  0  0  0  0  0  0
  1  2  2  0  0  0  0
  2  3  1  0  0  0  0
  2  7  1  0  0  0  0
  3  4  2  0  0  0  0
  4  5  1  0  0  0  0
  5  6  2  0  0  0  0
  6  1  1  0  0  0  0
  7  8  2  0  0  0  0
  8  9  1  0  0  0  0
  9 10  2  0  0  0  0
 10  3  1  0  0  0  0
 11 12  1  0  0  0  0
 11  9  1  0  0  0  0
 12 13  2  0  0  0  0
 13 14  1  0  0  0  0
 14 15  2  0  0  0  0
 14 38  1  0  0  0  0
 15 11  1  0  0  0  0
 16 17  1  0  0  0  0
 16 24  2  0  0  0  0
 17 18  1  0  0  0  0
 18 19  1  0  0  0  0
 18 37  2  0  0  0  0
 19 12  1  0  0  0  0
 20 21  2  0  0  0  0
 21 22  1  0  0  0  0
 22 23  2  0  0  0  0
 23 16  1  0  0  0  0
 23 36  1  0  0  0  0
 24 20  1  0  0  0  0
 25 26  1  0  0  0  0
 25 30  1  0  0  0  0
 26 21  1  0  0  0  0
 27 28  2  0  0  0  0
 28 29  1  0  0  0  0
 29 25  2  0  0  0  0
 30 31  2  0  0  0  0
 31 27  1  0  0  0  0
 31 32  1  0  0  0  0
 32 33  1  0  0  0  0
 32 35  2  0  0  0  0
 33 34  1  0  0  0  0
 38 39  1  0  0  0  0
 38 40  1  0  0  0  0
 38 41  1  0  0  0  0
M  END
>  <DATABASE_ID>
DB13005

>  <DATABASE_NAME>
drugbank

>  <SMILES>
CNC(=O)C1=CC(OC2=CC=C(NC(=O)NC3=CC(=NN3C3=CC4=CC=CN=C4C=C3)C(C)(C)C)C(F)=C2)=CC=N1

>  <INCHI_IDENTIFIER>
InChI=1S/C30H28FN7O3/c1-30(2,3)26-17-27(38(37-26)19-7-9-23-18(14-19)6-5-12-33-23)36-29(40)35-24-10-8-20(15-22(24)31)41-21-11-13-34-25(16-21)28(39)32-4/h5-17H,1-4H3,(H,32,39)(H2,35,36,40)

>  <INCHI_KEY>
WVXNSAVVKYZVOE-UHFFFAOYSA-N

>  <FORMULA>
C30H28FN7O3

>  <MOLECULAR_WEIGHT>
553.5868

>  <EXACT_MASS>
553.223766002

>  <JCHEM_ACCEPTOR_COUNT>
5

>  <JCHEM_ATOM_COUNT>
69

>  <JCHEM_AVERAGE_NEUTRAL_MICROSPECIES_CHARGE>
0.00637875226525695

>  <JCHEM_AVERAGE_POLARIZABILITY>
57.499597255860664

>  <JCHEM_BIOAVAILABILITY>
0

>  <JCHEM_DONOR_COUNT>
3

>  <JCHEM_FORMAL_CHARGE>
0

>  <JCHEM_GHOSE_FILTER>
0

>  <JCHEM_IUPAC>
4-[4-({[3-tert-butyl-1-(quinolin-6-yl)-1H-pyrazol-5-yl]carbamoyl}amino)-3-fluorophenoxy]-N-methylpyridine-2-carboxamide

>  <ALOGPS_LOGP>
4.93

>  <JCHEM_LOGP>
5.267809305666669

>  <ALOGPS_LOGS>
-5.11

>  <JCHEM_MDDR_LIKE_RULE>
1

>  <JCHEM_NEUTRAL_CHARGE>
0

>  <JCHEM_NUMBER_OF_RINGS>
5

>  <JCHEM_PHYSIOLOGICAL_CHARGE>
0

>  <JCHEM_PKA>
13.99530546717211

>  <JCHEM_PKA_STRONGEST_ACIDIC>
10.46493771570826

>  <JCHEM_PKA_STRONGEST_BASIC>
4.693879043294999

>  <JCHEM_POLAR_SURFACE_AREA>
123.06

>  <JCHEM_REFRACTIVITY>
153.78640000000004

>  <JCHEM_ROTATABLE_BOND_COUNT>
7

>  <JCHEM_RULE_OF_FIVE>
0

>  <ALOGPS_SOLUBILITY>
4.31e-03 g/l

>  <JCHEM_TRADITIONAL_IUPAC>
[(3aS,4R,10aS)-2-amino-5,10,10-trihydroxy-6-imino-1H,3aH,4H,8H,9H-pyrrolo[1,2-c]purin-4-yl]methyl carbamate

>  <JCHEM_VEBER_RULE>
0

>  <DRUGBANK_ID>
DB13005

>  <DRUG_GROUPS>
investigational

>  <GENERIC_NAME>
Rebastinib

>  <SYNONYMS>
Rebastinib

>  <SALTS>
Rebastinib tosylate

$$$$

 OpenBabel05042401512D

 27 26  0  0  1  0  0  0  0  0999 V2000
   -5.0066    0.2032    0.0000 N   0  0  0  0  0  0  0  0  0  0  0  0
   -7.8670    0.1913    0.0000 N   0  0  0  0  0  0  0  0  0  0  0  0
   -6.4368    0.1972    0.0000 C   0  0  0  0  0  0  0  0  0  0  0  0
   -5.7187   -0.2132    0.0000 C   0  0  0  0  0  0  0  0  0  0  0  0
   -7.1489   -0.2191    0.0000 C   0  0  0  0  0  0  0  0  0  0  0  0
   -4.2884   -0.2074    0.0000 C   0  0  0  0  0  0  0  0  0  0  0  0
   -2.8582   -0.2014    0.0000 C   0  0  0  0  0  0  0  0  0  0  0  0
   -3.5763    0.2091    0.0000 C   0  0  0  0  0  0  0  0  0  0  0  0
    7.1558   -0.1761    0.0000 C   0  0  0  0  0  0  0  0  0  0  0  0
    7.1602   -1.0011    0.0000 N   0  0  0  0  0  0  0  0  0  0  0  0
    6.4367    0.2327    0.0000 N   0  0  0  0  0  0  0  0  0  0  0  0
    7.8670    0.2419    0.0000 N   0  0  0  0  0  0  0  0  0  0  0  0
    5.7256   -0.1853    0.0000 C   0  0  0  0  0  0  0  0  0  0  0  0
    5.0065    0.2234    0.0000 C   0  0  0  0  0  0  0  0  0  0  0  0
    3.5763    0.2141    0.0000 C   0  0  0  0  0  0  0  0  0  0  0  0
    4.2954   -0.1946    0.0000 C   0  0  0  0  0  0  0  0  0  0  0  0
    0.7186    0.2075    0.0000 N   0  0  0  0  0  0  0  0  0  0  0  0
    0.0051   -0.2065    0.0000 C   0  0  2  0  0  0  0  0  0  0  0  0
   -0.7115    0.2065    0.0000 C   0  0  0  0  0  0  0  0  0  0  0  0
    1.4354   -0.2055    0.0000 C   0  0  0  0  0  0  0  0  0  0  0  0
   -0.7111    1.0314    0.0000 O   0  0  0  0  0  0  0  0  0  0  0  0
    1.4349   -1.0304    0.0000 O   0  0  0  0  0  0  0  0  0  0  0  0
   -1.4250   -0.2075    0.0000 N   0  0  0  0  0  0  0  0  0  0  0  0
    0.0047   -1.0314    0.0000 O   0  0  0  0  0  0  0  0  0  0  0  0
    2.1489    0.2085    0.0000 C   0  0  0  0  0  0  0  0  0  0  0  0
   -2.1417    0.2055    0.0000 C   0  0  0  0  0  0  0  0  0  0  0  0
    2.8656   -0.2045    0.0000 C   0  0  0  0  0  0  0  0  0  0  0  0
  1  6  1  0  0  0  0
  2  5  1  0  0  0  0
  3  4  1  0  0  0  0
  4  1  1  0  0  0  0
  5  3  1  0  0  0  0
  6  8  1  0  0  0  0
  8  7  1  0  0  0  0
  9 11  1  0  0  0  0
 10  9  2  0  0  0  0
 11 13  1  0  0  0  0
 12  9  1  0  0  0  0
 13 14  1  0  0  0  0
 14 16  1  0  0  0  0
 16 15  1  0  0  0  0
 18 17  1  1  0  0  0
 18 24  1  0  0  0  0
 19 18  1  0  0  0  0
 20 17  1  0  0  0  0
 21 19  2  0  0  0  0
 22 20  2  0  0  0  0
 23 19  1  0  0  0  0
 25 20  1  0  0  0  0
 26 23  1  0  0  0  0
 26  7  1  0  0  0  0
 27 25  1  0  0  0  0
 27 15  1  0  0  0  0
M  END
>  <DATABASE_ID>
DB12991

>  <DATABASE_NAME>
drugbank

>  <SMILES>
NCCCNCCCCNC(=O)[C@H](O)NC(=O)CCCCCCNC(N)=N

>  <INCHI_IDENTIFIER>
InChI=1S/C17H37N7O3/c18-9-7-11-21-10-5-6-12-22-15(26)16(27)24-14(25)8-3-1-2-4-13-23-17(19)20/h16,21,27H,1-13,18H2,(H,22,26)(H,24,25)(H4,19,20,23)/t16-/m0/s1

>  <INCHI_KEY>
IDINUJSAMVOPCM-INIZCTEOSA-N

>  <FORMULA>
C17H37N7O3

>  <MOLECULAR_WEIGHT>
387.529

>  <EXACT_MASS>
387.295788079

>  <JCHEM_ACCEPTOR_COUNT>
8

>  <JCHEM_ATOM_COUNT>
64

>  <JCHEM_AVERAGE_NEUTRAL_MICROSPECIES_CHARGE>
2.9189885065197516

>  <JCHEM_AVERAGE_POLARIZABILITY>
44.84387065662372

>  <JCHEM_BIOAVAILABILITY>
0

>  <JCHEM_DONOR_COUNT>
8

>  <JCHEM_FORMAL_CHARGE>
0

>  <JCHEM_GHOSE_FILTER>
0

>  <JCHEM_IUPAC>
N-[(S)-({4-[(3-aminopropyl)amino]butyl}carbamoyl)(hydroxy)methyl]-7-carbamimidamidoheptanamide

>  <ALOGPS_LOGP>
-0.89

>  <JCHEM_LOGP>
-3.1374416400577094

>  <ALOGPS_LOGS>
-3.48

>  <JCHEM_MDDR_LIKE_RULE>
0

>  <JCHEM_NEUTRAL_CHARGE>
3

>  <JCHEM_NUMBER_OF_RINGS>
0

>  <JCHEM_PHYSIOLOGICAL_CHARGE>
3

>  <JCHEM_PKA>
11.506707587481511

>  <JCHEM_PKA_STRONGEST_ACIDIC>
11.37168757212991

>  <JCHEM_PKA_STRONGEST_BASIC>
12.27857731172999

>  <JCHEM_POLAR_SURFACE_AREA>
178.37999999999997

>  <JCHEM_REFRACTIVITY>
115.74579999999996

>  <JCHEM_ROTATABLE_BOND_COUNT>
17

>  <JCHEM_RULE_OF_FIVE>
0

>  <ALOGPS_SOLUBILITY>
1.29e-01 g/l

>  <JCHEM_TRADITIONAL_IUPAC>
[(3aS,4R,10aS)-2-amino-5,10,10-trihydroxy-6-imino-1H,3aH,4H,8H,9H-pyrrolo[1,2-c]purin-4-yl]methyl carbamate

>  <JCHEM_VEBER_RULE>
0

>  <DRUGBANK_ID>
DB12991

>  <DRUG_GROUPS>
investigational

>  <GENERIC_NAME>
Deoxyspergualin

>  <SYNONYMS>
(-)-Gusperimus; 15-Desoxyspergualin; Deoxyspergualin

$$$$

 OpenBabel05042401512D

 23 23  0  0  0  0  0  0  0  0999 V2000
   -2.8500   -0.4258    0.0000 C   0  0  0  0  0  0  0  0  0  0  0  0
   -2.8500    0.4016    0.0000 C   0  0  0  0  0  0  0  0  0  0  0  0
   -2.1361   -0.8396    0.0000 C   0  0  0  0  0  0  0  0  0  0  0  0
   -3.5639   -0.8362    0.0000 C   0  0  0  0  0  0  0  0  0  0  0  0
   -2.1361    0.8155    0.0000 C   0  0  0  0  0  0  0  0  0  0  0  0
   -1.4188   -0.4258    0.0000 C   0  0  0  0  0  0  0  0  0  0  0  0
   -4.2777   -0.4224    0.0000 O   0  0  0  0  0  0  0  0  0  0  0  0
   -3.5672   -1.6603    0.0000 O   0  0  0  0  0  0  0  0  0  0  0  0
   -1.4224    0.4050    0.0000 C   0  0  0  0  0  0  0  0  0  0  0  0
   -4.9881   -0.8362    0.0000 C   0  0  0  0  0  0  0  0  0  0  0  0
   -0.7085    0.8189    0.0000 O   0  0  0  0  0  0  0  0  0  0  0  0
   -5.7018   -0.4224    0.0000 C   0  0  0  0  0  0  0  0  0  0  0  0
    0.0016    0.4086    0.0000 C   0  0  0  0  0  0  0  0  0  0  0  0
    0.7154    0.8224    0.0000 C   0  0  0  0  0  0  0  0  0  0  0  0
    0.0051   -0.4155    0.0000 O   0  0  0  0  0  0  0  0  0  0  0  0
    1.4259    0.4120    0.0000 C   0  0  0  0  0  0  0  0  0  0  0  0
    2.1397    0.8258    0.0000 C   0  0  0  0  0  0  0  0  0  0  0  0
    2.8535    0.4189    0.0000 C   0  0  0  0  0  0  0  0  0  0  0  0
    3.5639    0.8292    0.0000 C   0  0  0  0  0  0  0  0  0  0  0  0
    4.2777    0.4224    0.0000 N   0  0  0  0  0  0  0  0  0  0  0  0
    4.9916    0.8362    0.0000 C   0  0  0  0  0  0  0  0  0  0  0  0
    5.7018    0.4258    0.0000 N   0  0  0  0  0  0  0  0  0  0  0  0
    4.9881    1.6603    0.0000 N   0  0  0  0  0  0  0  0  0  0  0  0
  1  2  2  0  0  0  0
  1  3  1  0  0  0  0
  1  4  1  0  0  0  0
  2  5  1  0  0  0  0
  3  6  2  0  0  0  0
  4  7  1  0  0  0  0
  4  8  2  0  0  0  0
  5  9  2  0  0  0  0
  6  9  1  0  0  0  0
  7 10  1  0  0  0  0
  9 11  1  0  0  0  0
 10 12  1  0  0  0  0
 11 13  1  0  0  0  0
 13 14  1  0  0  0  0
 13 15  2  0  0  0  0
 14 16  1  0  0  0  0
 16 17  1  0  0  0  0
 17 18  1  0  0  0  0
 18 19  1  0  0  0  0
 19 20  1  0  0  0  0
 20 21  1  0  0  0  0
 21 22  1  0  0  0  0
 21 23  2  0  0  0  0
M  END
>  <DATABASE_ID>
DB12831

>  <DATABASE_NAME>
drugbank

>  <SMILES>
CCOC(=O)C1=CC=C(OC(=O)CCCCCNC(N)=N)C=C1

>  <INCHI_IDENTIFIER>
InChI=1S/C16H23N3O4/c1-2-22-15(21)12-7-9-13(10-8-12)23-14(20)6-4-3-5-11-19-16(17)18/h7-10H,2-6,11H2,1H3,(H4,17,18,19)

>  <INCHI_KEY>
YKGYIDJEEQRWQH-UHFFFAOYSA-N

>  <FORMULA>
C16H23N3O4

>  <MOLECULAR_WEIGHT>
321.377

>  <EXACT_MASS>
321.168856233

>  <JCHEM_ACCEPTOR_COUNT>
5

>  <JCHEM_ATOM_COUNT>
46

>  <JCHEM_AVERAGE_NEUTRAL_MICROSPECIES_CHARGE>
1.015032473071455

>  <JCHEM_AVERAGE_POLARIZABILITY>
35.67066491488018

>  <JCHEM_BIOAVAILABILITY>
1

>  <JCHEM_DONOR_COUNT>
3

>  <JCHEM_FORMAL_CHARGE>
0

>  <JCHEM_GHOSE_FILTER>
1

>  <JCHEM_IUPAC>
ethyl 4-[(6-carbamimidamidohexanoyl)oxy]benzoate

>  <ALOGPS_LOGP>
1.83

>  <JCHEM_LOGP>
2.0977023869999996

>  <ALOGPS_LOGS>
-3.47

>  <JCHEM_MDDR_LIKE_RULE>
0

>  <JCHEM_NEUTRAL_CHARGE>
1

>  <JCHEM_NUMBER_OF_RINGS>
1

>  <JCHEM_PHYSIOLOGICAL_CHARGE>
1

>  <JCHEM_PKA_STRONGEST_BASIC>
12.130090980654158

>  <JCHEM_POLAR_SURFACE_AREA>
114.5

>  <JCHEM_REFRACTIVITY>
96.69500000000001

>  <JCHEM_ROTATABLE_BOND_COUNT>
11

>  <JCHEM_RULE_OF_FIVE>
1

>  <ALOGPS_SOLUBILITY>
1.09e-01 g/l

>  <JCHEM_TRADITIONAL_IUPAC>
gabexate

>  <JCHEM_VEBER_RULE>
0

>  <DRUGBANK_ID>
DB12831

>  <DRUG_GROUPS>
investigational

>  <GENERIC_NAME>
Gabexate

>  <SYNONYMS>
Gabexate; Gabexato; Gabexatum

>  <SALTS>
Gabexate mesylate

$$$$

 OpenBabel05042401512D

 24 27  0  0  0  0  0  0  0  0999 V2000
   -0.7145   -2.8875    0.0000 C   0  0  0  0  0  0  0  0  0  0  0  0
    5.0013    1.2375    0.0000 C   0  0  0  0  0  0  0  0  0  0  0  0
    0.7145    1.2375    0.0000 C   0  0  0  0  0  0  0  0  0  0  0  0
    5.0013    2.0625    0.0000 C   0  0  0  0  0  0  0  0  0  0  0  0
    0.7145    2.0625    0.0000 C   0  0  0  0  0  0  0  0  0  0  0  0
    2.1434   -0.4125    0.0000 C   0  0  0  0  0  0  0  0  0  0  0  0
    4.2868    0.8250    0.0000 C   0  0  0  0  0  0  0  0  0  0  0  0
    1.4289    0.8250    0.0000 C   0  0  0  0  0  0  0  0  0  0  0  0
    4.2868    2.4750    0.0000 C   0  0  0  0  0  0  0  0  0  0  0  0
    1.4289    2.4750    0.0000 C   0  0  0  0  0  0  0  0  0  0  0  0
    2.1434   -1.2375    0.0000 C   0  0  0  0  0  0  0  0  0  0  0  0
    2.8579    0.0000    0.0000 C   0  0  0  0  0  0  0  0  0  0  0  0
    0.7145   -2.8875    0.0000 C   0  0  0  0  0  0  0  0  0  0  0  0
    0.0000   -1.6500    0.0000 C   0  0  0  0  0  0  0  0  0  0  0  0
    1.4289   -2.4750    0.0000 C   0  0  0  0  0  0  0  0  0  0  0  0
    0.7145   -1.2375    0.0000 C   0  0  0  0  0  0  0  0  0  0  0  0
    3.5724    1.2375    0.0000 C   0  0  0  0  0  0  0  0  0  0  0  0
    2.1434    1.2375    0.0000 C   0  0  0  0  0  0  0  0  0  0  0  0
    3.5724    2.0625    0.0000 C   0  0  0  0  0  0  0  0  0  0  0  0
    2.1434    2.0625    0.0000 C   0  0  0  0  0  0  0  0  0  0  0  0
   -0.0000   -2.4750    0.0000 N   0  0  0  0  0  0  0  0  0  0  0  0
    1.4289   -1.6500    0.0000 N   0  0  0  0  0  0  0  0  0  0  0  0
    2.8579    0.8250    0.0000 N   0  0  0  0  0  0  0  0  0  0  0  0
    2.8579    2.4750    0.0000 S   0  0  0  0  0  0  0  0  0  0  0  0
  4  2  2  0  0  0  0
  5  3  2  0  0  0  0
  7  2  1  0  0  0  0
  8  3  1  0  0  0  0
  9  4  1  0  0  0  0
 10  5  1  0  0  0  0
 11  6  1  0  0  0  0
 12  6  1  0  0  0  0
 15 13  1  0  0  0  0
 16 14  1  0  0  0  0
 17  7  2  0  0  0  0
 18  8  2  0  0  0  0
 19  9  2  0  0  0  0
 19 17  1  0  0  0  0
 20 10  2  0  0  0  0
 20 18  1  0  0  0  0
 21  1  1  0  0  0  0
 21 13  1  0  0  0  0
 21 14  1  0  0  0  0
 22 11  1  0  0  0  0
 22 15  1  0  0  0  0
 22 16  1  0  0  0  0
 23 12  1  0  0  0  0
 23 17  1  0  0  0  0
 23 18  1  0  0  0  0
 24 19  1  0  0  0  0
 24 20  1  0  0  0  0
M  END
>  <DATABASE_ID>
DB12710

>  <DATABASE_NAME>
drugbank

>  <SMILES>
CN1CCN(CCCN2C3=CC=CC=C3SC3=CC=CC=C23)CC1

>  <INCHI_IDENTIFIER>
InChI=1S/C20H25N3S/c1-21-13-15-22(16-14-21)11-6-12-23-17-7-2-4-9-19(17)24-20-10-5-3-8-18(20)23/h2-5,7-10H,6,11-16H2,1H3

>  <INCHI_KEY>
WEYVCQFUGFRXOM-UHFFFAOYSA-N

>  <FORMULA>
C20H25N3S

>  <MOLECULAR_WEIGHT>
339.5

>  <EXACT_MASS>
339.176918991

>  <JCHEM_ACCEPTOR_COUNT>
3

>  <JCHEM_ATOM_COUNT>
49

>  <JCHEM_AVERAGE_POLARIZABILITY>
39.53374118104756

>  <JCHEM_BIOAVAILABILITY>
1

>  <JCHEM_DONOR_COUNT>
0

>  <JCHEM_FORMAL_CHARGE>
0

>  <JCHEM_GHOSE_FILTER>
1

>  <JCHEM_IUPAC>
10-[3-(4-methylpiperazin-1-yl)propyl]-10H-phenothiazine

>  <ALOGPS_LOGP>
4.19

>  <JCHEM_LOGP>
3.778075145

>  <ALOGPS_LOGS>
-3.75

>  <JCHEM_MDDR_LIKE_RULE>
0

>  <JCHEM_NUMBER_OF_RINGS>
4

>  <JCHEM_PHYSIOLOGICAL_CHARGE>
1

>  <JCHEM_PKA_STRONGEST_BASIC>
8.405447802391311

>  <JCHEM_POLAR_SURFACE_AREA>
9.72

>  <JCHEM_REFRACTIVITY>
105.00159999999998

>  <JCHEM_ROTATABLE_BOND_COUNT>
4

>  <JCHEM_RULE_OF_FIVE>
1

>  <ALOGPS_SOLUBILITY>
6.01e-02 g/l

>  <JCHEM_TRADITIONAL_IUPAC>
perazine

>  <JCHEM_VEBER_RULE>
1

>  <DRUGBANK_ID>
DB12710

>  <DRUG_GROUPS>
approved; investigational

>  <GENERIC_NAME>
Perazine

$$$$

 OpenBabel05042401512D

 27 26  0  0  1  0  0  0  0  0999 V2000
    1.4289    0.2062    0.0000 C   0  0  0  0  0  0  0  0  0  0  0  0
    2.1433   -0.2062    0.0000 C   0  0  0  0  0  0  0  0  0  0  0  0
    2.8580    0.2062    0.0000 C   0  0  0  0  0  0  0  0  0  0  0  0
    3.5724   -0.2062    0.0000 C   0  0  0  0  0  0  0  0  0  0  0  0
    4.2869    0.2062    0.0000 C   0  0  0  0  0  0  0  0  0  0  0  0
    5.0014   -0.2062    0.0000 C   0  0  0  0  0  0  0  0  0  0  0  0
    5.7161    0.2062    0.0000 C   0  0  0  0  0  0  0  0  0  0  0  0
    1.4289    1.0312    0.0000 O   0  0  0  0  0  0  0  0  0  0  0  0
    0.7143   -0.2062    0.0000 N   0  0  0  0  0  0  0  0  0  0  0  0
    0.0000    0.2062    0.0000 C   0  0  3  0  0  0  0  0  0  0  0  0
   -0.7143   -0.2062    0.0000 C   0  0  0  0  0  0  0  0  0  0  0  0
   -0.7143   -1.0312    0.0000 O   0  0  0  0  0  0  0  0  0  0  0  0
    0.0000    1.0312    0.0000 O   0  0  0  0  0  0  0  0  0  0  0  0
   -1.4288    0.2062    0.0000 N   0  0  0  0  0  0  0  0  0  0  0  0
   -2.1433   -0.2062    0.0000 C   0  0  0  0  0  0  0  0  0  0  0  0
   -2.8580    0.2062    0.0000 C   0  0  0  0  0  0  0  0  0  0  0  0
   -3.5724   -0.2062    0.0000 C   0  0  0  0  0  0  0  0  0  0  0  0
   -4.2869    0.2062    0.0000 C   0  0  0  0  0  0  0  0  0  0  0  0
   -5.0014   -0.2062    0.0000 N   0  0  0  0  0  0  0  0  0  0  0  0
   -5.7160    0.2062    0.0000 C   0  0  0  0  0  0  0  0  0  0  0  0
   -6.4305   -0.2062    0.0000 C   0  0  0  0  0  0  0  0  0  0  0  0
   -7.1451    0.2062    0.0000 C   0  0  0  0  0  0  0  0  0  0  0  0
   -7.8596   -0.2062    0.0000 N   0  0  0  0  0  0  0  0  0  0  0  0
    6.4306   -0.2062    0.0000 N   0  0  0  0  0  0  0  0  0  0  0  0
    7.1451    0.2062    0.0000 C   0  0  0  0  0  0  0  0  0  0  0  0
    7.1451    1.0312    0.0000 N   0  0  0  0  0  0  0  0  0  0  0  0
    7.8596   -0.2062    0.0000 N   0  0  0  0  0  0  0  0  0  0  0  0
  1  2  1  0  0  0  0
  1  8  2  0  0  0  0
  1  9  1  0  0  0  0
  2  3  1  0  0  0  0
  3  4  1  0  0  0  0
  4  5  1  0  0  0  0
  5  6  1  0  0  0  0
  6  7  1  0  0  0  0
  7 24  1  0  0  0  0
  9 10  1  0  0  0  0
 10 11  1  0  0  0  0
 10 13  1  0  0  0  0
 11 12  2  0  0  0  0
 11 14  1  0  0  0  0
 14 15  1  0  0  0  0
 15 16  1  0  0  0  0
 16 17  1  0  0  0  0
 17 18  1  0  0  0  0
 18 19  1  0  0  0  0
 19 20  1  0  0  0  0
 20 21  1  0  0  0  0
 21 22  1  0  0  0  0
 22 23  1  0  0  0  0
 24 25  1  0  0  0  0
 25 26  2  0  0  0  0
 25 27  1  0  0  0  0
M  END
>  <DATABASE_ID>
DB12692

>  <DATABASE_NAME>
drugbank

>  <SMILES>
NCCCNCCCCNC(=O)C(O)NC(=O)CCCCCCNC(N)=N

>  <INCHI_IDENTIFIER>
InChI=1S/C17H37N7O3/c18-9-7-11-21-10-5-6-12-22-15(26)16(27)24-14(25)8-3-1-2-4-13-23-17(19)20/h16,21,27H,1-13,18H2,(H,22,26)(H,24,25)(H4,19,20,23)

>  <INCHI_KEY>
IDINUJSAMVOPCM-UHFFFAOYSA-N

>  <FORMULA>
C17H37N7O3

>  <MOLECULAR_WEIGHT>
387.529

>  <EXACT_MASS>
387.295788079

>  <JCHEM_ACCEPTOR_COUNT>
8

>  <JCHEM_ATOM_COUNT>
64

>  <JCHEM_AVERAGE_NEUTRAL_MICROSPECIES_CHARGE>
2.9189885065197516

>  <JCHEM_AVERAGE_POLARIZABILITY>
44.42597408181451

>  <JCHEM_BIOAVAILABILITY>
0

>  <JCHEM_DONOR_COUNT>
8

>  <JCHEM_FORMAL_CHARGE>
0

>  <JCHEM_GHOSE_FILTER>
0

>  <JCHEM_IUPAC>
N-[({4-[(3-aminopropyl)amino]butyl}carbamoyl)(hydroxy)methyl]-7-carbamimidamidoheptanamide

>  <ALOGPS_LOGP>
-0.89

>  <JCHEM_LOGP>
-3.1374416400577094

>  <ALOGPS_LOGS>
-3.48

>  <JCHEM_MDDR_LIKE_RULE>
0

>  <JCHEM_NEUTRAL_CHARGE>
3

>  <JCHEM_NUMBER_OF_RINGS>
0

>  <JCHEM_PHYSIOLOGICAL_CHARGE>
3

>  <JCHEM_PKA>
11.506707587481511

>  <JCHEM_PKA_STRONGEST_ACIDIC>
11.37168757212991

>  <JCHEM_PKA_STRONGEST_BASIC>
12.27857731172999

>  <JCHEM_POLAR_SURFACE_AREA>
178.38

>  <JCHEM_REFRACTIVITY>
115.74579999999997

>  <JCHEM_ROTATABLE_BOND_COUNT>
17

>  <JCHEM_RULE_OF_FIVE>
0

>  <ALOGPS_SOLUBILITY>
1.29e-01 g/l

>  <JCHEM_TRADITIONAL_IUPAC>
bromopride

>  <JCHEM_VEBER_RULE>
0

>  <DRUGBANK_ID>
DB12692

>  <DRUG_GROUPS>
investigational

>  <GENERIC_NAME>
Gusperimus

>  <SYNONYMS>
Gusperimus

>  <SALTS>
Gusperimus hydrochloride

$$$$

 OpenBabel05042401512D

 46 51  0  0  0  0  0  0  0  0999 V2000
   -6.5215    3.7934    0.0000 C   0  0  0  0  0  0  0  0  0  0  0  0
   -5.6965    3.7934    0.0000 C   0  0  0  0  0  0  0  0  0  0  0  0
   -5.2840    4.5079    0.0000 C   0  0  0  0  0  0  0  0  0  0  0  0
   -4.4590    4.5079    0.0000 C   0  0  0  0  0  0  0  0  0  0  0  0
   -4.0465    3.7934    0.0000 C   0  0  0  0  0  0  0  0  0  0  0  0
   -4.4590    3.0789    0.0000 C   0  0  0  0  0  0  0  0  0  0  0  0
   -5.2840    3.0789    0.0000 C   0  0  0  0  0  0  0  0  0  0  0  0
   -4.0465    2.3645    0.0000 N   0  0  0  0  0  0  0  0  0  0  0  0
   -3.2215    2.3645    0.0000 C   0  0  0  0  0  0  0  0  0  0  0  0
   -2.8090    3.0789    0.0000 O   0  0  0  0  0  0  0  0  0  0  0  0
   -2.8090    1.6500    0.0000 N   0  0  0  0  0  0  0  0  0  0  0  0
   -1.9840    1.6500    0.0000 C   0  0  0  0  0  0  0  0  0  0  0  0
   -1.4991    2.3174    0.0000 N   0  0  0  0  0  0  0  0  0  0  0  0
   -0.7145    2.0625    0.0000 C   0  0  0  0  0  0  0  0  0  0  0  0
    0.0000    2.4750    0.0000 C   0  0  0  0  0  0  0  0  0  0  0  0
    0.7145    2.0625    0.0000 C   0  0  0  0  0  0  0  0  0  0  0  0
    0.7145    1.2375    0.0000 C   0  0  0  0  0  0  0  0  0  0  0  0
    0.0000    0.8250    0.0000 C   0  0  0  0  0  0  0  0  0  0  0  0
   -0.7145    1.2375    0.0000 C   0  0  0  0  0  0  0  0  0  0  0  0
   -1.4991    0.9826    0.0000 S   0  0  0  0  0  0  0  0  0  0  0  0
    1.4289    0.8250    0.0000 N   0  0  0  0  0  0  0  0  0  0  0  0
    1.4289    0.0000    0.0000 C   0  0  0  0  0  0  0  0  0  0  0  0
    2.1434   -0.4125    0.0000 C   0  0  0  0  0  0  0  0  0  0  0  0
    2.8579    0.0000    0.0000 C   0  0  0  0  0  0  0  0  0  0  0  0
    3.5724   -0.4125    0.0000 C   0  0  0  0  0  0  0  0  0  0  0  0
    3.5724   -1.2375    0.0000 C   0  0  0  0  0  0  0  0  0  0  0  0
    2.8579   -1.6500    0.0000 C   0  0  0  0  0  0  0  0  0  0  0  0
    2.1434   -1.2375    0.0000 C   0  0  0  0  0  0  0  0  0  0  0  0
    1.4289   -1.6500    0.0000 N   0  0  0  0  0  0  0  0  0  0  0  0
    0.7145   -1.2375    0.0000 C   0  0  0  0  0  0  0  0  0  0  0  0
    0.7145   -0.4125    0.0000 N   0  0  0  0  0  0  0  0  0  0  0  0
    4.2868   -1.6500    0.0000 O   0  0  0  0  0  0  0  0  0  0  0  0
    5.0013   -1.2375    0.0000 C   0  0  0  0  0  0  0  0  0  0  0  0
    5.7158   -1.6500    0.0000 C   0  0  0  0  0  0  0  0  0  0  0  0
    6.4302   -1.2375    0.0000 C   0  0  0  0  0  0  0  0  0  0  0  0
    7.1447   -1.6500    0.0000 N   0  0  0  0  0  0  0  0  0  0  0  0
    7.8592   -1.2375    0.0000 C   0  0  0  0  0  0  0  0  0  0  0  0
    8.5737   -1.6500    0.0000 C   0  0  0  0  0  0  0  0  0  0  0  0
    8.5737   -2.4750    0.0000 N   0  0  0  0  0  0  0  0  0  0  0  0
    7.8592   -2.8875    0.0000 C   0  0  0  0  0  0  0  0  0  0  0  0
    7.1447   -2.4750    0.0000 C   0  0  0  0  0  0  0  0  0  0  0  0
    9.2881   -2.8875    0.0000 C   0  0  0  0  0  0  0  0  0  0  0  0
    4.2868   -0.0000    0.0000 O   0  0  0  0  0  0  0  0  0  0  0  0
    5.0013   -0.4125    0.0000 C   0  0  0  0  0  0  0  0  0  0  0  0
   -3.2215    3.7934    0.0000 O   0  0  0  0  0  0  0  0  0  0  0  0
   -2.8090    4.5079    0.0000 C   0  0  0  0  0  0  0  0  0  0  0  0
  1  2  1  0  0  0  0
  2  3  2  0  0  0  0
  2  7  1  0  0  0  0
  3  4  1  0  0  0  0
  4  5  2  0  0  0  0
  5  6  1  0  0  0  0
  5 45  1  0  0  0  0
  6  7  2  0  0  0  0
  6  8  1  0  0  0  0
  8  9  1  0  0  0  0
  9 10  2  0  0  0  0
  9 11  1  0  0  0  0
 11 12  1  0  0  0  0
 12 13  2  0  0  0  0
 12 20  1  0  0  0  0
 13 14  1  0  0  0  0
 14 15  2  0  0  0  0
 14 19  1  0  0  0  0
 15 16  1  0  0  0  0
 16 17  2  0  0  0  0
 17 18  1  0  0  0  0
 17 21  1  0  0  0  0
 18 19  2  0  0  0  0
 19 20  1  0  0  0  0
 21 22  1  0  0  0  0
 22 23  1  0  0  0  0
 22 31  2  0  0  0  0
 23 24  2  0  0  0  0
 23 28  1  0  0  0  0
 24 25  1  0  0  0  0
 25 26  2  0  0  0  0
 25 43  1  0  0  0  0
 26 27  1  0  0  0  0
 26 32  1  0  0  0  0
 27 28  2  0  0  0  0
 28 29  1  0  0  0  0
 29 30  2  0  0  0  0
 30 31  1  0  0  0  0
 32 33  1  0  0  0  0
 33 34  1  0  0  0  0
 34 35  1  0  0  0  0
 35 36  1  0  0  0  0
 36 37  1  0  0  0  0
 36 41  1  0  0  0  0
 37 38  1  0  0  0  0
 38 39  1  0  0  0  0
 39 40  1  0  0  0  0
 39 42  1  0  0  0  0
 40 41  1  0  0  0  0
 43 44  1  0  0  0  0
 45 46  1  0  0  0  0
M  END
>  <DATABASE_ID>
DB12669

>  <DATABASE_NAME>
drugbank

>  <SMILES>
COC1=CC=C(C)C=C1NC(=O)NC1=NC2=CC=C(NC3=NC=NC4=CC(OCCCN5CCN(C)CC5)=C(OC)C=C34)C=C2S1

>  <INCHI_IDENTIFIER>
InChI=1S/C33H38N8O4S/c1-21-6-9-27(43-3)26(16-21)37-32(42)39-33-38-24-8-7-22(17-30(24)46-33)36-31-23-18-28(44-4)29(19-25(23)34-20-35-31)45-15-5-10-41-13-11-40(2)12-14-41/h6-9,16-20H,5,10-15H2,1-4H3,(H,34,35,36)(H2,37,38,39,42)

>  <INCHI_KEY>
MAFACRSJGNJHCF-UHFFFAOYSA-N

>  <FORMULA>
C33H38N8O4S

>  <MOLECULAR_WEIGHT>
642.78

>  <EXACT_MASS>
642.27367291

>  <JCHEM_ACCEPTOR_COUNT>
10

>  <JCHEM_ATOM_COUNT>
84

>  <JCHEM_AVERAGE_POLARIZABILITY>
72.55475546092507

>  <JCHEM_BIOAVAILABILITY>
0

>  <JCHEM_DONOR_COUNT>
3

>  <JCHEM_FORMAL_CHARGE>
0

>  <JCHEM_GHOSE_FILTER>
0

>  <JCHEM_IUPAC>
1-(2-methoxy-5-methylphenyl)-3-[6-({6-methoxy-7-[3-(4-methylpiperazin-1-yl)propoxy]quinazolin-4-yl}amino)-1,3-benzothiazol-2-yl]urea

>  <ALOGPS_LOGP>
4.42

>  <JCHEM_LOGP>
5.395462575666666

>  <ALOGPS_LOGS>
-5.50

>  <JCHEM_MDDR_LIKE_RULE>
1

>  <JCHEM_NUMBER_OF_RINGS>
6

>  <JCHEM_PHYSIOLOGICAL_CHARGE>
1

>  <JCHEM_PKA>
15.34350477381454

>  <JCHEM_PKA_STRONGEST_ACIDIC>
9.999251529401311

>  <JCHEM_PKA_STRONGEST_BASIC>
8.018023177421071

>  <JCHEM_POLAR_SURFACE_AREA>
126.0

>  <JCHEM_REFRACTIVITY>
181.50439999999995

>  <JCHEM_ROTATABLE_BOND_COUNT>
11

>  <JCHEM_RULE_OF_FIVE>
0

>  <ALOGPS_SOLUBILITY>
2.04e-03 g/l

>  <JCHEM_TRADITIONAL_IUPAC>
1-(2-methoxy-5-methylphenyl)-3-[6-({6-methoxy-7-[3-(4-methylpiperazin-1-yl)propoxy]quinazolin-4-yl}amino)-1,3-benzothiazol-2-yl]urea

>  <JCHEM_VEBER_RULE>
0

>  <DRUGBANK_ID>
DB12669

>  <DRUG_GROUPS>
investigational

>  <GENERIC_NAME>
4SC-203

$$$$

 OpenBabel05042401512D

 26 28  0  0  0  0  0  0  0  0999 V2000
    1.4269   -0.6156    0.0000 C   0  0  0  0  0  0  0  0  0  0  0  0
    0.7133   -0.2064    0.0000 C   0  0  0  0  0  0  0  0  0  0  0  0
    0.7133    0.6203    0.0000 C   0  0  0  0  0  0  0  0  0  0  0  0
    1.4269    1.0379    0.0000 C   0  0  0  0  0  0  0  0  0  0  0  0
    2.1405   -0.2064    0.0000 C   0  0  0  0  0  0  0  0  0  0  0  0
    2.1380    0.6185    0.0000 C   0  0  0  0  0  0  0  0  0  0  0  0
    2.8499    1.0314    0.0000 C   0  0  0  0  0  0  0  0  0  0  0  0
    3.5651    0.6205    0.0000 C   0  0  0  0  0  0  0  0  0  0  0  0
    3.5636   -0.2075    0.0000 C   0  0  0  0  0  0  0  0  0  0  0  0
    2.8511   -0.6167    0.0000 C   0  0  0  0  0  0  0  0  0  0  0  0
    4.2810    1.0340    0.0000 C   0  0  0  0  0  0  0  0  0  0  0  0
    4.2808    1.8608    0.0000 N   0  0  0  0  0  0  0  0  0  0  0  0
    4.9971    0.6207    0.0000 N   0  0  0  0  0  0  0  0  0  0  0  0
    0.0026   -0.6198    0.0000 O   0  0  0  0  0  0  0  0  0  0  0  0
   -0.7114   -0.2064    0.0000 C   0  0  0  0  0  0  0  0  0  0  0  0
   -1.4255   -0.6198    0.0000 C   0  0  0  0  0  0  0  0  0  0  0  0
   -0.7114    0.6203    0.0000 O   0  0  0  0  0  0  0  0  0  0  0  0
   -1.4217   -1.4459    0.0000 C   0  0  0  0  0  0  0  0  0  0  0  0
   -2.1350   -1.8593    0.0000 C   0  0  0  0  0  0  0  0  0  0  0  0
   -2.8510   -1.4475    0.0000 C   0  0  0  0  0  0  0  0  0  0  0  0
   -2.8493   -0.6181    0.0000 C   0  0  0  0  0  0  0  0  0  0  0  0
   -2.1356   -0.2086    0.0000 C   0  0  0  0  0  0  0  0  0  0  0  0
   -3.5671   -1.8608    0.0000 N   0  0  0  0  0  0  0  0  0  0  0  0
   -4.2775   -1.4424    0.0000 C   0  0  0  0  0  0  0  0  0  0  0  0
   -4.9971   -1.8496    0.0000 N   0  0  0  0  0  0  0  0  0  0  0  0
   -4.2704   -0.6156    0.0000 N   0  0  0  0  0  0  0  0  0  0  0  0
  1  2  2  0  0  0  0
  2 14  1  0  0  0  0
  2  3  1  0  0  0  0
  3  4  2  0  0  0  0
  5  6  2  0  0  0  0
  5  1  1  0  0  0  0
  6  7  1  0  0  0  0
  6  4  1  0  0  0  0
  7  8  2  0  0  0  0
  8  9  1  0  0  0  0
  8 11  1  0  0  0  0
  9 10  2  0  0  0  0
 10  5  1  0  0  0  0
 11 13  1  0  0  0  0
 11 12  2  0  0  0  0
 14 15  1  0  0  0  0
 15 16  1  0  0  0  0
 15 17  2  0  0  0  0
 16 18  2  0  0  0  0
 18 19  1  0  0  0  0
 19 20  2  0  0  0  0
 20 21  1  0  0  0  0
 20 23  1  0  0  0  0
 21 22  2  0  0  0  0
 22 16  1  0  0  0  0
 23 24  1  0  0  0  0
 24 25  1  0  0  0  0
 24 26  2  0  0  0  0
M  END
>  <DATABASE_ID>
DB12598

>  <DATABASE_NAME>
drugbank

>  <SMILES>
NC(=N)NC1=CC=C(C=C1)C(=O)OC1=CC2=C(C=C1)C=C(C=C2)C(N)=N

>  <INCHI_IDENTIFIER>
InChI=1S/C19H17N5O2/c20-17(21)14-2-1-13-10-16(8-5-12(13)9-14)26-18(25)11-3-6-15(7-4-11)24-19(22)23/h1-10H,(H3,20,21)(H4,22,23,24)

>  <INCHI_KEY>
MQQNFDZXWVTQEH-UHFFFAOYSA-N

>  <FORMULA>
C19H17N5O2

>  <MOLECULAR_WEIGHT>
347.378

>  <EXACT_MASS>
347.138224807

>  <JCHEM_ACCEPTOR_COUNT>
6

>  <JCHEM_ATOM_COUNT>
43

>  <JCHEM_AVERAGE_NEUTRAL_MICROSPECIES_CHARGE>
1.790727265642372

>  <JCHEM_AVERAGE_POLARIZABILITY>
36.47550147618504

>  <JCHEM_BIOAVAILABILITY>
1

>  <JCHEM_DONOR_COUNT>
5

>  <JCHEM_FORMAL_CHARGE>
0

>  <JCHEM_GHOSE_FILTER>
1

>  <JCHEM_IUPAC>
6-carbamimidoylnaphthalen-2-yl 4-carbamimidamidobenzoate

>  <ALOGPS_LOGP>
1.91

>  <JCHEM_LOGP>
2.5186194733333327

>  <ALOGPS_LOGS>
-4.01

>  <JCHEM_MDDR_LIKE_RULE>
0

>  <JCHEM_NEUTRAL_CHARGE>
2

>  <JCHEM_NUMBER_OF_RINGS>
3

>  <JCHEM_PHYSIOLOGICAL_CHARGE>
2

>  <JCHEM_PKA_STRONGEST_BASIC>
11.316520012797733

>  <JCHEM_POLAR_SURFACE_AREA>
138.07000000000002

>  <JCHEM_REFRACTIVITY>
122.11739999999999

>  <JCHEM_ROTATABLE_BOND_COUNT>
5

>  <JCHEM_RULE_OF_FIVE>
1

>  <ALOGPS_SOLUBILITY>
3.41e-02 g/l

>  <JCHEM_TRADITIONAL_IUPAC>
aclerastide

>  <JCHEM_VEBER_RULE>
0

>  <DRUGBANK_ID>
DB12598

>  <DRUG_GROUPS>
investigational

>  <GENERIC_NAME>
Nafamostat

>  <SYNONYMS>
Nafamostat; Nafamostatum; p-Guanidinobenzoic acid ester with 6-hydroxy-2-naphthamidine

>  <INTERNATIONAL_BRANDS>
Berabu; Buipel; Buseron; Coahibitor; Famoset; Futhan; Nafaston; Nafatat; Namostatt; Naotamin; Opsun; Pathron; Ronastat

>  <SALTS>
Nafamostat mesylate

$$$$

 OpenBabel05042401512D

 29 31  0  0  0  0  0  0  0  0999 V2000
   -0.4768   -3.8121    0.0000 C   0  0  0  0  0  0  0  0  0  0  0  0
   -0.3053   -3.0051    0.0000 N   0  0  0  0  0  0  0  0  0  0  0  0
   -0.9184   -2.4531    0.0000 C   0  0  0  0  0  0  0  0  0  0  0  0
    0.4793   -2.7502    0.0000 C   0  0  0  0  0  0  0  0  0  0  0  0
    0.6508   -1.9432    0.0000 C   0  0  0  0  0  0  0  0  0  0  0  0
    0.0988   -1.3301    0.0000 C   0  0  0  0  0  0  0  0  0  0  0  0
   -0.7262   -1.3301    0.0000 C   0  0  0  0  0  0  0  0  0  0  0  0
   -1.1387   -0.6157    0.0000 C   0  0  0  0  0  0  0  0  0  0  0  0
   -0.7262    0.0988    0.0000 C   0  0  0  0  0  0  0  0  0  0  0  0
    0.0988    0.0988    0.0000 C   0  0  0  0  0  0  0  0  0  0  0  0
    0.5113   -0.6157    0.0000 C   0  0  0  0  0  0  0  0  0  0  0  0
    1.3183   -0.7872    0.0000 O   0  0  0  0  0  0  0  0  0  0  0  0
    1.4045   -1.6077    0.0000 C   0  0  0  0  0  0  0  0  0  0  0  0
    2.1190   -2.0202    0.0000 C   0  0  0  0  0  0  0  0  0  0  0  0
    2.8334   -1.6077    0.0000 O   0  0  0  0  0  0  0  0  0  0  0  0
    2.1190   -2.8452    0.0000 N   0  0  0  0  0  0  0  0  0  0  0  0
    2.8334   -3.2577    0.0000 C   0  0  0  0  0  0  0  0  0  0  0  0
    3.5479   -2.8452    0.0000 C   0  0  0  0  0  0  0  0  0  0  0  0
    3.5479   -2.0202    0.0000 O   0  0  0  0  0  0  0  0  0  0  0  0
    4.2624   -1.6077    0.0000 C   0  0  0  0  0  0  0  0  0  0  0  0
    4.2624   -0.7827    0.0000 C   0  0  0  0  0  0  0  0  0  0  0  0
    4.9769   -0.3702    0.0000 C   0  0  0  0  0  0  0  0  0  0  0  0
    5.6913   -0.7827    0.0000 C   0  0  0  0  0  0  0  0  0  0  0  0
    5.6913   -1.6077    0.0000 C   0  0  0  0  0  0  0  0  0  0  0  0
    4.9769   -2.0202    0.0000 C   0  0  0  0  0  0  0  0  0  0  0  0
    6.4058   -0.3702    0.0000 C   0  0  0  0  0  0  0  0  0  0  0  0
    6.4058    0.4548    0.0000 O   0  0  0  0  0  0  0  0  0  0  0  0
    7.1203   -0.7827    0.0000 N   0  0  0  0  0  0  0  0  0  0  0  0
    7.8347   -0.3702    0.0000 O   0  0  0  0  0  0  0  0  0  0  0  0
  1  2  1  0  0  0  0
  2  3  1  0  0  0  0
  2  4  1  0  0  0  0
  4  5  1  0  0  0  0
  5  6  1  0  0  0  0
  5 13  2  0  0  0  0
  6  7  2  0  0  0  0
  6 11  1  0  0  0  0
  7  8  1  0  0  0  0
  8  9  2  0  0  0  0
  9 10  1  0  0  0  0
 10 11  2  0  0  0  0
 11 12  1  0  0  0  0
 12 13  1  0  0  0  0
 13 14  1  0  0  0  0
 14 15  2  0  0  0  0
 14 16  1  0  0  0  0
 16 17  1  0  0  0  0
 17 18  1  0  0  0  0
 18 19  1  0  0  0  0
 19 20  1  0  0  0  0
 20 21  2  0  0  0  0
 20 25  1  0  0  0  0
 21 22  1  0  0  0  0
 22 23  2  0  0  0  0
 23 24  1  0  0  0  0
 23 26  1  0  0  0  0
 24 25  2  0  0  0  0
 26 27  2  0  0  0  0
 26 28  1  0  0  0  0
 28 29  1  0  0  0  0
M  END
>  <DATABASE_ID>
DB12565

>  <DATABASE_NAME>
drugbank

>  <SMILES>
CN(C)CC1=C(OC2=CC=CC=C12)C(=O)NCCOC1=CC=C(C=C1)C(=O)NO

>  <INCHI_IDENTIFIER>
InChI=1S/C21H23N3O5/c1-24(2)13-17-16-5-3-4-6-18(16)29-19(17)21(26)22-11-12-28-15-9-7-14(8-10-15)20(25)23-27/h3-10,27H,11-13H2,1-2H3,(H,22,26)(H,23,25)

>  <INCHI_KEY>
MAUCONCHVWBMHK-UHFFFAOYSA-N

>  <FORMULA>
C21H23N3O5

>  <MOLECULAR_WEIGHT>
397.431

>  <EXACT_MASS>
397.163770853

>  <JCHEM_ACCEPTOR_COUNT>
5

>  <JCHEM_ATOM_COUNT>
52

>  <JCHEM_AVERAGE_POLARIZABILITY>
42.77271443461462

>  <JCHEM_BIOAVAILABILITY>
1

>  <JCHEM_DONOR_COUNT>
3

>  <JCHEM_FORMAL_CHARGE>
0

>  <JCHEM_GHOSE_FILTER>
1

>  <JCHEM_IUPAC>
3-[(dimethylamino)methyl]-N-{2-[4-(hydroxycarbamoyl)phenoxy]ethyl}-1-benzofuran-2-carboxamide

>  <ALOGPS_LOGP>
1.80

>  <JCHEM_LOGP>
1.4293554534612478

>  <ALOGPS_LOGS>
-3.71

>  <JCHEM_MDDR_LIKE_RULE>
1

>  <JCHEM_NUMBER_OF_RINGS>
3

>  <JCHEM_PHYSIOLOGICAL_CHARGE>
1

>  <JCHEM_PKA>
12.942960482025203

>  <JCHEM_PKA_STRONGEST_ACIDIC>
9.826280230957142

>  <JCHEM_PKA_STRONGEST_BASIC>
8.225045570750373

>  <JCHEM_POLAR_SURFACE_AREA>
104.04

>  <JCHEM_REFRACTIVITY>
108.68959999999998

>  <JCHEM_ROTATABLE_BOND_COUNT>
8

>  <JCHEM_RULE_OF_FIVE>
1

>  <ALOGPS_SOLUBILITY>
7.67e-02 g/l

>  <JCHEM_TRADITIONAL_IUPAC>
abexinostat

>  <JCHEM_VEBER_RULE>
0

>  <DRUGBANK_ID>
DB12565

>  <SECONDARY_ACCESSION_NUMBERS>
DB05921

>  <DRUG_GROUPS>
investigational

>  <GENERIC_NAME>
Abexinostat

>  <SYNONYMS>
Abexinostat

$$$$

 OpenBabel05042401512D

 27 30  0  0  1  0  0  0  0  0999 V2000
    0.3824   -3.5719    0.0000 C   0  0  0  0  0  0  0  0  0  0  0  0
   -0.2850   -3.0870    0.0000 C   0  0  0  0  0  0  0  0  0  0  0  0
   -0.1988   -2.2665    0.0000 C   0  0  0  0  0  0  0  0  0  0  0  0
    0.5549   -1.9309    0.0000 C   0  0  0  0  0  0  0  0  0  0  0  0
    1.2223   -2.4158    0.0000 C   0  0  0  0  0  0  0  0  0  0  0  0
    1.1361   -3.2363    0.0000 C   0  0  0  0  0  0  0  0  0  0  0  0
    1.8035   -3.7212    0.0000 N   0  0  0  0  0  0  0  0  0  0  0  0
    1.7173   -4.5417    0.0000 C   0  0  0  0  0  0  0  0  0  0  0  0
    0.9636   -4.8773    0.0000 O   0  0  0  0  0  0  0  0  0  0  0  0
    2.3847   -5.0267    0.0000 C   0  0  0  0  0  0  0  0  0  0  0  0
    3.1384   -4.6911    0.0000 C   0  0  0  0  0  0  0  0  0  0  0  0
    3.8058   -5.1760    0.0000 C   0  0  0  0  0  0  0  0  0  0  0  0
    3.7196   -5.9965    0.0000 C   0  0  0  0  0  0  0  0  0  0  0  0
    2.9659   -6.3321    0.0000 C   0  0  0  0  0  0  0  0  0  0  0  0
    2.2985   -5.8471    0.0000 N   0  0  0  0  0  0  0  0  0  0  0  0
    4.3870   -6.4814    0.0000 F   0  0  0  0  0  0  0  0  0  0  0  0
    0.6411   -1.1104    0.0000 C   0  0  2  0  0  0  0  0  0  0  0  0
   -0.1435   -1.3654    0.0000 C   0  0  0  0  0  0  0  0  0  0  0  0
   -0.6284   -0.6979    0.0000 O   0  0  0  0  0  0  0  0  0  0  0  0
   -0.1435   -0.0305    0.0000 C   0  0  0  0  0  0  0  0  0  0  0  0
    0.6411   -0.2854    0.0000 C   0  0  1  0  0  0  0  0  0  0  0  0
    1.3556    0.1271    0.0000 C   0  0  0  0  0  0  0  0  0  0  0  0
    2.0701   -0.2854    0.0000 S   0  0  0  0  0  0  0  0  0  0  0  0
    2.0701   -1.1104    0.0000 C   0  0  0  0  0  0  0  0  0  0  0  0
    1.3556   -1.5229    0.0000 N   0  0  0  0  0  0  0  0  0  0  0  0
    2.7845   -1.5229    0.0000 N   0  0  0  0  0  0  0  0  0  0  0  0
   -0.8662   -1.7816    0.0000 F   0  0  0  0  0  0  0  0  0  0  0  0
  1  2  2  0  0  0  0
  1  6  1  0  0  0  0
  2  3  1  0  0  0  0
  3  4  2  0  0  0  0
  3 27  1  0  0  0  0
  4  5  1  0  0  0  0
  5  6  2  0  0  0  0
  6  7  1  0  0  0  0
  7  8  1  0  0  0  0
  8  9  2  0  0  0  0
  8 10  1  0  0  0  0
 10 11  2  0  0  0  0
 10 15  1  0  0  0  0
 11 12  1  0  0  0  0
 12 13  2  0  0  0  0
 13 14  1  0  0  0  0
 13 16  1  0  0  0  0
 14 15  2  0  0  0  0
 17  4  1  6  0  0  0
 17 18  1  0  0  0  0
 17 21  1  0  0  0  0
 17 25  1  0  0  0  0
 18 19  1  0  0  0  0
 19 20  1  0  0  0  0
 21 20  1  1  0  0  0
 21 22  1  0  0  0  0
 22 23  1  0  0  0  0
 23 24  1  0  0  0  0
 24 25  2  0  0  0  0
 24 26  1  0  0  0  0
M  END
>  <DATABASE_ID>
DB12547

>  <DATABASE_NAME>
drugbank

>  <SMILES>
NC1=N[C@]2(COC[C@H]2CS1)C1=C(F)C=CC(NC(=O)C2=CC=C(F)C=N2)=C1

>  <INCHI_IDENTIFIER>
InChI=1S/C18H16F2N4O2S/c19-11-1-4-15(22-6-11)16(25)23-12-2-3-14(20)13(5-12)18-9-26-7-10(18)8-27-17(21)24-18/h1-6,10H,7-9H2,(H2,21,24)(H,23,25)/t10-,18-/m0/s1

>  <INCHI_KEY>
NIDRNVHMMDAAIK-YPMLDQLKSA-N

>  <FORMULA>
C18H16F2N4O2S

>  <MOLECULAR_WEIGHT>
390.41

>  <EXACT_MASS>
390.096203271

>  <JCHEM_ACCEPTOR_COUNT>
5

>  <JCHEM_ATOM_COUNT>
43

>  <JCHEM_AVERAGE_POLARIZABILITY>
36.8859623788741

>  <JCHEM_BIOAVAILABILITY>
1

>  <JCHEM_DONOR_COUNT>
2

>  <JCHEM_FORMAL_CHARGE>
0

>  <JCHEM_GHOSE_FILTER>
1

>  <JCHEM_IUPAC>
N-{3-[(4aS,7aS)-2-amino-4H,4aH,5H,7H,7aH-furo[3,4-d][1,3]thiazin-7a-yl]-4-fluorophenyl}-5-fluoropyridine-2-carboxamide

>  <ALOGPS_LOGP>
2.09

>  <JCHEM_LOGP>
2.4505945239999996

>  <ALOGPS_LOGS>
-4.16

>  <JCHEM_MDDR_LIKE_RULE>
0

>  <JCHEM_NUMBER_OF_RINGS>
4

>  <JCHEM_PHYSIOLOGICAL_CHARGE>
1

>  <JCHEM_PKA_STRONGEST_ACIDIC>
11.548282901027681

>  <JCHEM_PKA_STRONGEST_BASIC>
7.478383270637882

>  <JCHEM_POLAR_SURFACE_AREA>
89.6

>  <JCHEM_REFRACTIVITY>
98.783

>  <JCHEM_ROTATABLE_BOND_COUNT>
3

>  <JCHEM_RULE_OF_FIVE>
1

>  <ALOGPS_SOLUBILITY>
2.67e-02 g/l

>  <JCHEM_TRADITIONAL_IUPAC>
N-{3-[(4aS,7aS)-2-amino-4H,4aH,5H,7H-furo[3,4-d][1,3]thiazin-7a-yl]-4-fluorophenyl}-5-fluoropyridine-2-carboxamide

>  <JCHEM_VEBER_RULE>
0

>  <DRUGBANK_ID>
DB12547

>  <DRUG_GROUPS>
investigational

>  <GENERIC_NAME>
LY-2886721

$$$$

 OpenBabel05042401512D

 40 44  0  0  1  0  0  0  0  0999 V2000
    3.1895    1.8414    0.0000 C   0  0  0  0  0  0  0  0  0  0  0  0
    3.6020    1.1270    0.0000 C   0  0  1  0  0  0  0  0  0  0  0  0
    4.0145    1.8414    0.0000 C   0  0  0  0  0  0  0  0  0  0  0  0
    4.8395    1.8414    0.0000 C   0  0  0  0  0  0  0  0  0  0  0  0
    5.2520    1.1270    0.0000 C   0  0  1  0  0  0  0  0  0  0  0  0
    6.0770    1.1270    0.0000 C   0  0  0  0  0  0  0  0  0  0  0  0
    6.4895    0.4125    0.0000 C   0  0  0  0  0  0  0  0  0  0  0  0
    6.0770   -0.3020    0.0000 C   0  0  0  0  0  0  0  0  0  0  0  0
    5.2520   -0.3020    0.0000 C   0  0  0  0  0  0  0  0  0  0  0  0
    4.8395    0.4125    0.0000 C   0  0  1  0  0  0  0  0  0  0  0  0
    4.0145    0.4125    0.0000 C   0  0  1  0  0  0  0  0  0  0  0  0
    3.6020   -0.3020    0.0000 C   0  0  0  0  0  0  0  0  0  0  0  0
    4.0145   -1.0164    0.0000 O   0  0  0  0  0  0  0  0  0  0  0  0
    2.7770   -0.3020    0.0000 C   0  0  0  0  0  0  0  0  0  0  0  0
    2.3645    0.4125    0.0000 C   0  0  0  0  0  0  0  0  0  0  0  0
    2.7770    1.1270    0.0000 C   0  0  1  0  0  0  0  0  0  0  0  0
    2.3645    1.8414    0.0000 C   0  0  0  0  0  0  0  0  0  0  0  0
    1.5395    1.8414    0.0000 C   0  0  0  0  0  0  0  0  0  0  0  0
    1.1270    1.1270    0.0000 C   0  0  2  0  0  0  0  0  0  0  0  0
    1.5395    0.4125    0.0000 C   0  0  2  0  0  0  0  0  0  0  0  0
    1.1270   -0.3020    0.0000 C   0  0  0  0  0  0  0  0  0  0  0  0
    0.3020   -0.3020    0.0000 C   0  0  0  0  0  0  0  0  0  0  0  0
   -0.1105    0.4125    0.0000 C   0  0  0  0  0  0  0  0  0  0  0  0
   -0.9355    0.4125    0.0000 O   0  0  0  0  0  0  0  0  0  0  0  0
    0.3020    1.1270    0.0000 C   0  0  0  0  0  0  0  0  0  0  0  0
   -0.3977    1.5642    0.0000 C   0  0  0  0  0  0  0  0  0  0  0  0
    0.2732    1.9515    0.0000 C   0  0  0  0  0  0  0  0  0  0  0  0
   -0.1105   -1.0164    0.0000 C   0  0  0  0  0  0  0  0  0  0  0  0
   -0.5230   -1.7309    0.0000 N   0  0  0  0  0  0  0  0  0  0  0  0
    1.9520   -0.3020    0.0000 C   0  0  0  0  0  0  0  0  0  0  0  0
    2.6907    1.9475    0.0000 C   0  0  0  0  0  0  0  0  0  0  0  0
    6.7766   -0.7392    0.0000 C   0  0  0  0  0  0  0  0  0  0  0  0
    6.1058   -1.1265    0.0000 C   0  0  0  0  0  0  0  0  0  0  0  0
    5.6645    1.8414    0.0000 N   0  0  0  0  0  0  0  0  0  0  0  0
    6.4895    1.8414    0.0000 C   0  0  0  0  0  0  0  0  0  0  0  0
    6.9020    1.1270    0.0000 O   0  0  0  0  0  0  0  0  0  0  0  0
    6.9020    2.5559    0.0000 C   0  0  0  0  0  0  0  0  0  0  0  0
    7.3145    3.2704    0.0000 C   0  0  0  0  0  0  0  0  0  0  0  0
    7.6164    2.1434    0.0000 F   0  0  0  0  0  0  0  0  0  0  0  0
    6.1875    2.9684    0.0000 F   0  0  0  0  0  0  0  0  0  0  0  0
  2  1  1  1  0  0  0
  2  3  1  0  0  0  0
  2 11  1  0  0  0  0
  2 16  1  0  0  0  0
  3  4  1  0  0  0  0
  4  5  1  0  0  0  0
  5  6  1  0  0  0  0
  5 10  1  0  0  0  0
  5 34  1  6  0  0  0
  6  7  1  0  0  0  0
  7  8  1  0  0  0  0
  8  9  1  0  0  0  0
  8 32  1  0  0  0  0
  8 33  1  0  0  0  0
 10  9  1  1  0  0  0
 10 11  1  0  0  0  0
 11 12  1  1  0  0  0
 12 13  2  0  0  0  0
 12 14  1  0  0  0  0
 14 15  2  0  0  0  0
 15 16  1  0  0  0  0
 15 20  1  0  0  0  0
 16 17  1  0  0  0  0
 16 31  1  6  0  0  0
 17 18  1  0  0  0  0
 19 18  1  6  0  0  0
 19 20  1  0  0  0  0
 19 25  1  0  0  0  0
 20 21  1  0  0  0  0
 20 30  1  6  0  0  0
 21 22  2  0  0  0  0
 22 23  1  0  0  0  0
 22 28  1  0  0  0  0
 23 24  2  0  0  0  0
 23 25  1  0  0  0  0
 25 26  1  0  0  0  0
 25 27  1  0  0  0  0
 28 29  3  0  0  0  0
 34 35  1  0  0  0  0
 35 36  2  0  0  0  0
 35 37  1  0  0  0  0
 37 38  1  0  0  0  0
 37 39  1  0  0  0  0
 37 40  1  0  0  0  0
M  END
>  <DATABASE_ID>
DB12513

>  <DATABASE_NAME>
drugbank

>  <SMILES>
CC(F)(F)C(=O)N[C@]12CCC(C)(C)C[C@H]1[C@H]1C(=O)C=C3[C@@]4(C)C=C(C#N)C(=O)C(C)(C)[C@@H]4CC[C@@]3(C)[C@]1(C)CC2

>  <INCHI_IDENTIFIER>
InChI=1S/C33H44F2N2O3/c1-27(2)11-13-33(37-26(40)32(8,34)35)14-12-31(7)24(20(33)17-27)21(38)15-23-29(5)16-19(18-36)25(39)28(3,4)22(29)9-10-30(23,31)6/h15-16,20,22,24H,9-14,17H2,1-8H3,(H,37,40)/t20-,22-,24-,29-,30+,31+,33-/m0/s1

>  <INCHI_KEY>
RJCWBNBKOKFWNY-IDPLTSGASA-N

>  <FORMULA>
C33H44F2N2O3

>  <MOLECULAR_WEIGHT>
554.723

>  <EXACT_MASS>
554.331999611

>  <JCHEM_ACCEPTOR_COUNT>
4

>  <JCHEM_ATOM_COUNT>
84

>  <JCHEM_AVERAGE_POLARIZABILITY>
60.76231660983332

>  <JCHEM_BIOAVAILABILITY>
0

>  <JCHEM_DONOR_COUNT>
1

>  <JCHEM_FORMAL_CHARGE>
0

>  <JCHEM_GHOSE_FILTER>
0

>  <JCHEM_IUPAC>
N-[(4aS,6aR,6bS,8aR,12aS,14aR,14bS)-11-cyano-2,2,6a,6b,9,9,12a-heptamethyl-10,14-dioxo-1,2,3,4,4a,5,6,6a,6b,7,8,8a,9,10,12a,14,14a,14b-octadecahydropicen-4a-yl]-2,2-difluoropropanamide

>  <ALOGPS_LOGP>
5.64

>  <JCHEM_LOGP>
6.279140317

>  <ALOGPS_LOGS>
-5.67

>  <JCHEM_MDDR_LIKE_RULE>
0

>  <JCHEM_NUMBER_OF_RINGS>
5

>  <JCHEM_PHYSIOLOGICAL_CHARGE>
0

>  <JCHEM_PKA_STRONGEST_ACIDIC>
10.106221136001697

>  <JCHEM_PKA_STRONGEST_BASIC>
-5.340171431173641

>  <JCHEM_POLAR_SURFACE_AREA>
87.03

>  <JCHEM_REFRACTIVITY>
151.24949999999998

>  <JCHEM_ROTATABLE_BOND_COUNT>
2

>  <JCHEM_RULE_OF_FIVE>
0

>  <ALOGPS_SOLUBILITY>
1.19e-03 g/l

>  <JCHEM_TRADITIONAL_IUPAC>
N-[(4aS,6aR,6bS,8aR,12aS,14aR,14bS)-11-cyano-2,2,6a,6b,9,9,12a-heptamethyl-10,14-dioxo-1,3,4,5,6,7,8,8a,14a,14b-decahydropicen-4a-yl]-2,2-difluoropropanamide

>  <JCHEM_VEBER_RULE>
0

>  <DRUGBANK_ID>
DB12513

>  <DRUG_GROUPS>
approved; investigational

>  <GENERIC_NAME>
Omaveloxolone

>  <SYNONYMS>
Omaveloxolone; Propanamide, N-(2-cyano-3,12-dioxo-28-noroleana-1,9(11)-dien-17-yl)-2,2-difluoro-

>  <PRODUCTS>
Skyclarys

>  <INTERNATIONAL_BRANDS>
Skyclarys

$$$$

 OpenBabel05042401512D

 32 35  0  0  1  0  0  0  0  0999 V2000
    0.3213    3.7183    0.0000 O   0  0  0  0  0  0  0  0  0  0  0  0
    1.2225    2.7217    0.0000 N   0  0  0  0  0  0  0  0  0  0  0  0
    0.5905    0.5414    0.0000 N   0  0  0  0  0  0  0  0  0  0  0  0
   -0.6469    2.9059    0.0000 N   0  0  0  0  0  0  0  0  0  0  0  0
    1.5260   -1.5210    0.0000 N   0  0  0  0  0  0  0  0  0  0  0  0
    0.5905    2.1914    0.0000 C   0  0  3  0  0  0  0  0  0  0  0  0
   -0.1239    1.7789    0.0000 C   0  0  0  0  0  0  0  0  0  0  0  0
    1.3049    1.7789    0.0000 C   0  0  0  0  0  0  0  0  0  0  0  0
   -0.1239    0.9539    0.0000 C   0  0  0  0  0  0  0  0  0  0  0  0
    1.3049    0.9539    0.0000 C   0  0  0  0  0  0  0  0  0  0  0  0
    1.9978    2.4396    0.0000 C   0  0  0  0  0  0  0  0  0  0  0  0
    1.0792    3.5342    0.0000 C   0  0  0  0  0  0  0  0  0  0  0  0
    2.6297    2.9699    0.0000 C   0  0  0  0  0  0  0  0  0  0  0  0
    1.7112    4.0645    0.0000 C   0  0  0  0  0  0  0  0  0  0  0  0
    0.1780    2.9059    0.0000 C   0  0  0  0  0  0  0  0  0  0  0  0
    2.4865    3.7824    0.0000 C   0  0  0  0  0  0  0  0  0  0  0  0
    0.5905   -0.2835    0.0000 C   0  0  0  0  0  0  0  0  0  0  0  0
   -0.1239   -0.6960    0.0000 C   0  0  0  0  0  0  0  0  0  0  0  0
   -0.1239   -1.5210    0.0000 C   0  0  3  0  0  0  0  0  0  0  0  0
   -0.1239   -2.3460    0.0000 C   0  0  0  0  0  0  0  0  0  0  0  0
   -0.9489   -1.5210    0.0000 C   0  0  0  0  0  0  0  0  0  0  0  0
    0.7010   -1.5210    0.0000 C   0  0  0  0  0  0  0  0  0  0  0  0
   -0.8383   -2.7585    0.0000 C   0  0  0  0  0  0  0  0  0  0  0  0
   -1.3614   -0.8065    0.0000 C   0  0  0  0  0  0  0  0  0  0  0  0
    0.5905   -2.7585    0.0000 C   0  0  0  0  0  0  0  0  0  0  0  0
   -1.3614   -2.2354    0.0000 C   0  0  0  0  0  0  0  0  0  0  0  0
   -0.8383   -3.5835    0.0000 C   0  0  0  0  0  0  0  0  0  0  0  0
   -2.1864   -0.8065    0.0000 C   0  0  0  0  0  0  0  0  0  0  0  0
    0.5905   -3.5835    0.0000 C   0  0  0  0  0  0  0  0  0  0  0  0
   -2.1864   -2.2354    0.0000 C   0  0  0  0  0  0  0  0  0  0  0  0
   -0.1239   -3.9960    0.0000 C   0  0  0  0  0  0  0  0  0  0  0  0
   -2.5989   -1.5210    0.0000 C   0  0  0  0  0  0  0  0  0  0  0  0
  1 15  2  0  0  0  0
  2  6  1  0  0  0  0
  2 11  1  0  0  0  0
  2 12  1  0  0  0  0
  3  9  1  0  0  0  0
  3 10  1  0  0  0  0
  3 17  1  0  0  0  0
  4 15  1  0  0  0  0
  5 22  3  0  0  0  0
  6  7  1  0  0  0  0
  6  8  1  0  0  0  0
  6 15  1  0  0  0  0
  7  9  1  0  0  0  0
  8 10  1  0  0  0  0
 11 13  1  0  0  0  0
 12 14  1  0  0  0  0
 13 16  1  0  0  0  0
 14 16  1  0  0  0  0
 17 18  1  0  0  0  0
 18 19  1  0  0  0  0
 19 20  1  0  0  0  0
 19 21  1  0  0  0  0
 19 22  1  0  0  0  0
 20 23  2  0  0  0  0
 20 25  1  0  0  0  0
 21 24  2  0  0  0  0
 21 26  1  0  0  0  0
 23 27  1  0  0  0  0
 24 28  1  0  0  0  0
 25 29  2  0  0  0  0
 26 30  2  0  0  0  0
 27 31  2  0  0  0  0
 28 32  2  0  0  0  0
 29 31  1  0  0  0  0
 30 32  1  0  0  0  0
M  END
>  <DATABASE_ID>
DB12492

>  <DATABASE_NAME>
drugbank

>  <SMILES>
NC(=O)C1(CCN(CCC(C#N)(C2=CC=CC=C2)C2=CC=CC=C2)CC1)N1CCCCC1

>  <INCHI_IDENTIFIER>
InChI=1S/C27H34N4O/c28-22-26(23-10-4-1-5-11-23,24-12-6-2-7-13-24)14-19-30-20-15-27(16-21-30,25(29)32)31-17-8-3-9-18-31/h1-2,4-7,10-13H,3,8-9,14-21H2,(H2,29,32)

>  <INCHI_KEY>
IHEHEFLXQFOQJO-UHFFFAOYSA-N

>  <FORMULA>
C27H34N4O

>  <MOLECULAR_WEIGHT>
430.5851

>  <EXACT_MASS>
430.27326173

>  <JCHEM_ACCEPTOR_COUNT>
4

>  <JCHEM_ATOM_COUNT>
66

>  <JCHEM_AVERAGE_NEUTRAL_MICROSPECIES_CHARGE>
1.2160196748962138

>  <JCHEM_AVERAGE_POLARIZABILITY>
49.45464851155796

>  <JCHEM_BIOAVAILABILITY>
1

>  <JCHEM_DONOR_COUNT>
1

>  <JCHEM_FORMAL_CHARGE>
0

>  <JCHEM_GHOSE_FILTER>
0

>  <JCHEM_IUPAC>
1'-(3-cyano-3,3-diphenylpropyl)-[1,4'-bipiperidine]-4'-carboxamide

>  <ALOGPS_LOGP>
3.71

>  <JCHEM_LOGP>
3.394744209999999

>  <ALOGPS_LOGS>
-4.63

>  <JCHEM_MDDR_LIKE_RULE>
1

>  <JCHEM_NEUTRAL_CHARGE>
1

>  <JCHEM_NUMBER_OF_RINGS>
4

>  <JCHEM_PHYSIOLOGICAL_CHARGE>
1

>  <JCHEM_PKA_STRONGEST_ACIDIC>
15.715887311042005

>  <JCHEM_PKA_STRONGEST_BASIC>
8.873902064825653

>  <JCHEM_POLAR_SURFACE_AREA>
73.36000000000001

>  <JCHEM_REFRACTIVITY>
139.806

>  <JCHEM_ROTATABLE_BOND_COUNT>
7

>  <JCHEM_RULE_OF_FIVE>
1

>  <ALOGPS_SOLUBILITY>
9.98e-03 g/l

>  <JCHEM_TRADITIONAL_IUPAC>
mizolastine

>  <JCHEM_VEBER_RULE>
0

>  <DRUGBANK_ID>
DB12492

>  <DRUG_GROUPS>
approved; investigational

>  <GENERIC_NAME>
Piritramide

>  <SYNONYMS>
Piritramida; Piritramide; Piritramidum

>  <INTERNATIONAL_BRANDS>
Dipidolor; Piridolan

$$$$

 OpenBabel05042401512D

 41 42  0  0  1  0  0  0  0  0999 V2000
   -2.8579    1.6500    0.0000 C   0  0  0  0  0  0  0  0  0  0  0  0
   -2.1434    1.2375    0.0000 C   0  0  0  0  0  0  0  0  0  0  0  0
   -1.4289    1.6500    0.0000 C   0  0  0  0  0  0  0  0  0  0  0  0
   -1.4289    2.4750    0.0000 C   0  0  0  0  0  0  0  0  0  0  0  0
   -2.1434    2.8875    0.0000 C   0  0  0  0  0  0  0  0  0  0  0  0
   -2.8579    2.4750    0.0000 C   0  0  0  0  0  0  0  0  0  0  0  0
   -3.5724    2.8875    0.0000 N   0  3  0  0  0  0  0  0  0  0  0  0
   -4.2868    2.4750    0.0000 O   0  0  0  0  0  0  0  0  0  0  0  0
   -3.5724    3.7125    0.0000 O   0  5  0  0  0  0  0  0  0  0  0  0
   -0.7145    2.8875    0.0000 C   0  0  0  0  0  0  0  0  0  0  0  0
   -0.0000    2.4750    0.0000 O   0  0  0  0  0  0  0  0  0  0  0  0
   -0.7145    3.7125    0.0000 N   0  0  0  0  0  0  0  0  0  0  0  0
   -0.0000    4.1250    0.0000 C   0  0  2  0  0  0  0  0  0  0  0  0
    0.7145    3.7125    0.0000 C   0  0  0  0  0  0  0  0  0  0  0  0
    1.4289    4.1250    0.0000 O   0  0  0  0  0  0  0  0  0  0  0  0
    0.7145    2.8875    0.0000 N   0  0  0  0  0  0  0  0  0  0  0  0
    1.4289    2.4750    0.0000 C   0  0  2  0  0  0  0  0  0  0  0  0
    1.4289    1.6500    0.0000 C   0  0  0  0  0  0  0  0  0  0  0  0
    2.1434    1.2375    0.0000 O   0  0  0  0  0  0  0  0  0  0  0  0
    0.7145    1.2375    0.0000 N   0  0  0  0  0  0  0  0  0  0  0  0
    0.7145    0.4125    0.0000 C   0  0  1  0  0  0  0  0  0  0  0  0
   -0.0000    0.0000    0.0000 C   0  0  0  0  0  0  0  0  0  0  0  0
   -0.7145    0.4125    0.0000 C   0  0  0  0  0  0  0  0  0  0  0  0
   -0.7145    1.2375    0.0000 O   0  0  0  0  0  0  0  0  0  0  0  0
    1.4289    0.0000    0.0000 C   0  0  0  0  0  0  0  0  0  0  0  0
    1.4289   -0.8250    0.0000 O   0  0  0  0  0  0  0  0  0  0  0  0
    2.1434    0.4125    0.0000 N   0  0  0  0  0  0  0  0  0  0  0  0
    2.8579    0.0000    0.0000 C   0  0  0  0  0  0  0  0  0  0  0  0
    3.5724    0.4125    0.0000 C   0  0  0  0  0  0  0  0  0  0  0  0
    3.5724    1.2375    0.0000 O   0  0  0  0  0  0  0  0  0  0  0  0
    4.2868    0.0000    0.0000 O   0  0  0  0  0  0  0  0  0  0  0  0
    2.1434    2.8875    0.0000 C   0  0  0  0  0  0  0  0  0  0  0  0
    2.8579    2.4750    0.0000 C   0  0  0  0  0  0  0  0  0  0  0  0
    3.5724    2.8875    0.0000 C   0  0  0  0  0  0  0  0  0  0  0  0
    4.2868    2.4750    0.0000 C   0  0  0  0  0  0  0  0  0  0  0  0
    5.0013    2.8875    0.0000 N   0  0  0  0  0  0  0  0  0  0  0  0
   -0.0000    4.9500    0.0000 C   0  0  0  0  0  0  0  0  0  0  0  0
    0.7145    5.3625    0.0000 C   0  0  0  0  0  0  0  0  0  0  0  0
    0.7145    6.1875    0.0000 C   0  0  0  0  0  0  0  0  0  0  0  0
   -0.0000    6.6000    0.0000 O   0  0  0  0  0  0  0  0  0  0  0  0
    1.4289    6.6000    0.0000 O   0  0  0  0  0  0  0  0  0  0  0  0
  1  2  2  0  0  0  0
  1  6  1  0  0  0  0
  2  3  1  0  0  0  0
  3  4  2  0  0  0  0
  3 24  1  0  0  0  0
  4  5  1  0  0  0  0
  4 10  1  0  0  0  0
  5  6  2  0  0  0  0
  6  7  1  0  0  0  0
  7  8  2  0  0  0  0
  7  9  1  0  0  0  0
 10 11  2  0  0  0  0
 10 12  1  0  0  0  0
 12 13  1  0  0  0  0
 13 14  1  0  0  0  0
 13 37  1  1  0  0  0
 14 15  2  0  0  0  0
 14 16  1  0  0  0  0
 16 17  1  0  0  0  0
 17 18  1  0  0  0  0
 17 32  1  1  0  0  0
 18 19  2  0  0  0  0
 18 20  1  0  0  0  0
 20 21  1  0  0  0  0
 21 22  1  0  0  0  0
 21 25  1  6  0  0  0
 22 23  1  0  0  0  0
 23 24  1  0  0  0  0
 25 26  2  0  0  0  0
 25 27  1  0  0  0  0
 27 28  1  0  0  0  0
 28 29  1  0  0  0  0
 29 30  2  0  0  0  0
 29 31  1  0  0  0  0
 32 33  1  0  0  0  0
 33 34  1  0  0  0  0
 34 35  1  0  0  0  0
 35 36  1  0  0  0  0
 37 38  1  0  0  0  0
 38 39  1  0  0  0  0
 39 40  2  0  0  0  0
 39 41  1  0  0  0  0
M  CHG  2   7   1   9  -1
M  END
>  <DATABASE_ID>
DB12441

>  <DATABASE_NAME>
drugbank

>  <SMILES>
NCCCC[C@@H]1NC(=O)[C@H](CCC(O)=O)NC(=O)C2=C(OCC[C@H](NC1=O)C(=O)NCC(O)=O)C=CC(=C2)[N+]([O-])=O

>  <INCHI_IDENTIFIER>
InChI=1S/C24H32N6O11/c25-9-2-1-3-15-23(37)29-17(22(36)26-12-20(33)34)8-10-41-18-6-4-13(30(39)40)11-14(18)21(35)27-16(24(38)28-15)5-7-19(31)32/h4,6,11,15-17H,1-3,5,7-10,12,25H2,(H,26,36)(H,27,35)(H,28,38)(H,29,37)(H,31,32)(H,33,34)/t15-,16-,17-/m0/s1

>  <INCHI_KEY>
DVJXNXPFYJIACK-ULQDDVLXSA-N

>  <FORMULA>
C24H32N6O11

>  <MOLECULAR_WEIGHT>
580.551

>  <EXACT_MASS>
580.212905874

>  <JCHEM_ACCEPTOR_COUNT>
12

>  <JCHEM_ATOM_COUNT>
73

>  <JCHEM_AVERAGE_POLARIZABILITY>
56.31392858201955

>  <JCHEM_BIOAVAILABILITY>
0

>  <JCHEM_DONOR_COUNT>
7

>  <JCHEM_FORMAL_CHARGE>
0

>  <JCHEM_GHOSE_FILTER>
0

>  <JCHEM_IUPAC>
3-[(4S,7S,10S)-7-(4-aminobutyl)-4-[(carboxymethyl)carbamoyl]-14-nitro-6,9,12-trioxo-3,4,5,6,7,8,9,10,11,12-decahydro-2H-1,5,8,11-benzoxatriazacyclotetradecin-10-yl]propanoic acid

>  <ALOGPS_LOGP>
-2.47

>  <JCHEM_LOGP>
-4.781641316571472

>  <ALOGPS_LOGS>
-3.41

>  <JCHEM_MDDR_LIKE_RULE>
0

>  <JCHEM_NUMBER_OF_RINGS>
2

>  <JCHEM_PHYSIOLOGICAL_CHARGE>
-1

>  <JCHEM_PKA>
3.311408895912749

>  <JCHEM_PKA_STRONGEST_ACIDIC>
2.7040753197432683

>  <JCHEM_PKA_STRONGEST_BASIC>
9.88697770788459

>  <JCHEM_POLAR_SURFACE_AREA>
269.39

>  <JCHEM_REFRACTIVITY>
137.04399999999998

>  <JCHEM_ROTATABLE_BOND_COUNT>
11

>  <JCHEM_RULE_OF_FIVE>
0

>  <ALOGPS_SOLUBILITY>
2.28e-01 g/l

>  <JCHEM_TRADITIONAL_IUPAC>
3-[(4S,7S,10S)-7-(4-aminobutyl)-4-(carboxymethylcarbamoyl)-14-nitro-6,9,12-trioxo-2,3,4,5,7,8,10,11-octahydro-1,5,8,11-benzoxatriazacyclotetradecin-10-yl]propanoic acid

>  <JCHEM_VEBER_RULE>
0

>  <DRUGBANK_ID>
DB12441

>  <DRUG_GROUPS>
investigational

>  <GENERIC_NAME>
Tavilermide

>  <SYNONYMS>
Tavilermide

$$$$

 OpenBabel05042401512D

 60 61  0  0  1  0  0  0  0  0999 V2000
    8.5737   -2.4750    0.0000 C   0  0  0  0  0  0  0  0  0  0  0  0
    9.2881   -2.8875    0.0000 C   0  0  3  0  0  0  0  0  0  0  0  0
   10.0026   -2.4750    0.0000 C   0  0  0  0  0  0  0  0  0  0  0  0
   10.7171   -2.8875    0.0000 O   0  0  0  0  0  0  0  0  0  0  0  0
    9.2881   -3.7125    0.0000 O   0  0  0  0  0  0  0  0  0  0  0  0
    7.8592   -2.8875    0.0000 N   0  0  0  0  0  0  0  0  0  0  0  0
    7.1447   -2.4750    0.0000 C   0  0  0  0  0  0  0  0  0  0  0  0
    7.1447   -1.6500    0.0000 O   0  0  0  0  0  0  0  0  0  0  0  0
    6.4302   -2.8875    0.0000 C   0  0  0  0  0  0  0  0  0  0  0  0
    6.4302   -3.7125    0.0000 C   0  0  0  0  0  0  0  0  0  0  0  0
    5.7158   -4.1250    0.0000 C   0  0  0  0  0  0  0  0  0  0  0  0
    5.0013   -3.7125    0.0000 C   0  0  0  0  0  0  0  0  0  0  0  0
    5.0013   -2.8875    0.0000 C   0  0  0  0  0  0  0  0  0  0  0  0
    5.7158   -2.4750    0.0000 C   0  0  0  0  0  0  0  0  0  0  0  0
    5.7158   -1.6500    0.0000 I   0  0  0  0  0  0  0  0  0  0  0  0
    4.2868   -2.4750    0.0000 N   0  0  0  0  0  0  0  0  0  0  0  0
    3.5724   -2.8875    0.0000 C   0  0  0  0  0  0  0  0  0  0  0  0
    2.8579   -2.4750    0.0000 C   0  0  3  0  0  0  0  0  0  0  0  0
    2.1434   -2.8875    0.0000 C   0  0  0  0  0  0  0  0  0  0  0  0
    1.4289   -2.4750    0.0000 N   0  0  0  0  0  0  0  0  0  0  0  0
    1.4289   -1.6500    0.0000 C   0  0  0  0  0  0  0  0  0  0  0  0
    0.7145   -1.2375    0.0000 O   0  0  0  0  0  0  0  0  0  0  0  0
    0.7145   -2.8875    0.0000 C   0  0  0  0  0  0  0  0  0  0  0  0
    0.7145   -3.7125    0.0000 C   0  0  0  0  0  0  0  0  0  0  0  0
    0.0000   -4.1250    0.0000 C   0  0  0  0  0  0  0  0  0  0  0  0
   -0.7145   -3.7125    0.0000 C   0  0  0  0  0  0  0  0  0  0  0  0
   -0.7145   -2.8875    0.0000 C   0  0  0  0  0  0  0  0  0  0  0  0
    0.0000   -2.4750    0.0000 C   0  0  0  0  0  0  0  0  0  0  0  0
    0.0000   -1.6500    0.0000 I   0  0  0  0  0  0  0  0  0  0  0  0
   -1.4289   -2.4750    0.0000 C   0  0  0  0  0  0  0  0  0  0  0  0
   -1.4289   -1.6500    0.0000 O   0  0  0  0  0  0  0  0  0  0  0  0
   -2.1434   -2.8875    0.0000 N   0  0  0  0  0  0  0  0  0  0  0  0
   -2.8579   -2.4750    0.0000 C   0  0  0  0  0  0  0  0  0  0  0  0
   -3.5724   -2.8875    0.0000 C   0  0  3  0  0  0  0  0  0  0  0  0
   -4.2868   -2.4750    0.0000 C   0  0  0  0  0  0  0  0  0  0  0  0
   -5.0013   -2.8875    0.0000 O   0  0  0  0  0  0  0  0  0  0  0  0
   -3.5724   -3.7125    0.0000 O   0  0  0  0  0  0  0  0  0  0  0  0
   -1.4289   -4.1250    0.0000 I   0  0  0  0  0  0  0  0  0  0  0  0
    0.0000   -4.9500    0.0000 C   0  0  0  0  0  0  0  0  0  0  0  0
    0.7145   -5.3625    0.0000 O   0  0  0  0  0  0  0  0  0  0  0  0
   -0.7145   -5.3625    0.0000 N   0  0  0  0  0  0  0  0  0  0  0  0
   -0.7145   -6.1875    0.0000 C   0  0  0  0  0  0  0  0  0  0  0  0
   -1.4289   -6.6000    0.0000 C   0  0  3  0  0  0  0  0  0  0  0  0
   -1.4289   -7.4250    0.0000 C   0  0  0  0  0  0  0  0  0  0  0  0
   -2.1434   -7.8375    0.0000 O   0  0  0  0  0  0  0  0  0  0  0  0
   -2.1434   -6.1875    0.0000 O   0  0  0  0  0  0  0  0  0  0  0  0
    1.4289   -4.1250    0.0000 I   0  0  0  0  0  0  0  0  0  0  0  0
    2.8579   -1.6500    0.0000 O   0  0  0  0  0  0  0  0  0  0  0  0
    4.2868   -1.6500    0.0000 C   0  0  0  0  0  0  0  0  0  0  0  0
    5.0013   -1.2375    0.0000 O   0  0  0  0  0  0  0  0  0  0  0  0
    4.2868   -4.1250    0.0000 I   0  0  0  0  0  0  0  0  0  0  0  0
    5.7158   -4.9500    0.0000 C   0  0  0  0  0  0  0  0  0  0  0  0
    6.4302   -5.3625    0.0000 O   0  0  0  0  0  0  0  0  0  0  0  0
    5.0013   -5.3625    0.0000 N   0  0  0  0  0  0  0  0  0  0  0  0
    5.0013   -6.1875    0.0000 C   0  0  0  0  0  0  0  0  0  0  0  0
    4.2868   -6.6000    0.0000 C   0  0  3  0  0  0  0  0  0  0  0  0
    4.2868   -7.4250    0.0000 C   0  0  0  0  0  0  0  0  0  0  0  0
    3.5724   -7.8375    0.0000 O   0  0  0  0  0  0  0  0  0  0  0  0
    3.5724   -6.1875    0.0000 O   0  0  0  0  0  0  0  0  0  0  0  0
    7.1447   -4.1250    0.0000 I   0  0  0  0  0  0  0  0  0  0  0  0
  1  2  1  0  0  0  0
  1  6  1  0  0  0  0
  2  3  1  0  0  0  0
  2  5  1  0  0  0  0
  3  4  1  0  0  0  0
  6  7  1  0  0  0  0
  7  8  2  0  0  0  0
  7  9  1  0  0  0  0
  9 10  2  0  0  0  0
  9 14  1  0  0  0  0
 10 11  1  0  0  0  0
 10 60  1  0  0  0  0
 11 12  2  0  0  0  0
 11 52  1  0  0  0  0
 12 13  1  0  0  0  0
 12 51  1  0  0  0  0
 13 14  2  0  0  0  0
 13 16  1  0  0  0  0
 14 15  1  0  0  0  0
 16 17  1  0  0  0  0
 16 49  1  0  0  0  0
 17 18  1  0  0  0  0
 18 19  1  0  0  0  0
 18 48  1  0  0  0  0
 19 20  1  0  0  0  0
 20 21  1  0  0  0  0
 20 23  1  0  0  0  0
 21 22  2  0  0  0  0
 23 24  2  0  0  0  0
 23 28  1  0  0  0  0
 24 25  1  0  0  0  0
 24 47  1  0  0  0  0
 25 26  2  0  0  0  0
 25 39  1  0  0  0  0
 26 27  1  0  0  0  0
 26 38  1  0  0  0  0
 27 28  2  0  0  0  0
 27 30  1  0  0  0  0
 28 29  1  0  0  0  0
 30 31  2  0  0  0  0
 30 32  1  0  0  0  0
 32 33  1  0  0  0  0
 33 34  1  0  0  0  0
 34 35  1  0  0  0  0
 34 37  1  0  0  0  0
 35 36  1  0  0  0  0
 39 40  2  0  0  0  0
 39 41  1  0  0  0  0
 41 42  1  0  0  0  0
 42 43  1  0  0  0  0
 43 44  1  0  0  0  0
 43 46  1  0  0  0  0
 44 45  1  0  0  0  0
 49 50  2  0  0  0  0
 52 53  2  0  0  0  0
 52 54  1  0  0  0  0
 54 55  1  0  0  0  0
 55 56  1  0  0  0  0
 56 57  1  0  0  0  0
 56 59  1  0  0  0  0
 57 58  1  0  0  0  0
M  END
>  <DATABASE_ID>
DB12439

>  <DATABASE_NAME>
drugbank

>  <SMILES>
OCC(O)CNC(=O)C1=C(I)C(C(=O)NCC(O)CO)=C(I)C(N(CC(O)CN(C=O)C2=C(I)C(C(=O)NCC(O)CO)=C(I)C(C(=O)NCC(O)CO)=C2I)C=O)=C1I

>  <INCHI_IDENTIFIER>
InChI=1S/C33H40I6N6O15/c34-22-18(30(57)40-1-13(52)7-46)24(36)28(25(37)19(22)31(58)41-2-14(53)8-47)44(11-50)5-17(56)6-45(12-51)29-26(38)20(32(59)42-3-15(54)9-48)23(35)21(27(29)39)33(60)43-4-16(55)10-49/h11-17,46-49,52-56H,1-10H2,(H,40,57)(H,41,58)(H,42,59)(H,43,60)

>  <INCHI_KEY>
BFVVDRUCXCIALU-UHFFFAOYSA-N

>  <FORMULA>
C33H40I6N6O15

>  <MOLECULAR_WEIGHT>
1522.137

>  <EXACT_MASS>
1521.68198

>  <JCHEM_ACCEPTOR_COUNT>
15

>  <JCHEM_ATOM_COUNT>
100

>  <JCHEM_AVERAGE_POLARIZABILITY>
109.39470681505017

>  <JCHEM_BIOAVAILABILITY>
0

>  <JCHEM_DONOR_COUNT>
13

>  <JCHEM_FORMAL_CHARGE>
0

>  <JCHEM_GHOSE_FILTER>
0

>  <JCHEM_IUPAC>
5-{N-[3-(N-{3,5-bis[(2,3-dihydroxypropyl)carbamoyl]-2,4,6-triiodophenyl}formamido)-2-hydroxypropyl]formamido}-N1,N3-bis(2,3-dihydroxypropyl)-2,4,6-triiodobenzene-1,3-dicarboxamide

>  <ALOGPS_LOGP>
-3.10

>  <JCHEM_LOGP>
-2.160028303333334

>  <ALOGPS_LOGS>
-3.73

>  <JCHEM_MDDR_LIKE_RULE>
0

>  <JCHEM_NUMBER_OF_RINGS>
2

>  <JCHEM_PHYSIOLOGICAL_CHARGE>
0

>  <JCHEM_PKA>
11.946978199916336

>  <JCHEM_PKA_STRONGEST_ACIDIC>
11.436414184078968

>  <JCHEM_PKA_STRONGEST_BASIC>
-3.193473073108396

>  <JCHEM_POLAR_SURFACE_AREA>
339.0899999999999

>  <JCHEM_REFRACTIVITY>
268.18090000000007

>  <JCHEM_ROTATABLE_BOND_COUNT>
22

>  <JCHEM_RULE_OF_FIVE>
0

>  <ALOGPS_SOLUBILITY>
2.86e-01 g/l

>  <JCHEM_TRADITIONAL_IUPAC>
5-{N-[3-(N-{3,5-bis[(2,3-dihydroxypropyl)carbamoyl]-2,4,6-triiodophenyl}formamido)-2-hydroxypropyl]formamido}-N1,N3-bis(2,3-dihydroxypropyl)-2,4,6-triiodobenzene-1,3-dicarboxamide

>  <JCHEM_VEBER_RULE>
0

>  <DRUGBANK_ID>
DB12439

>  <DRUG_GROUPS>
investigational

>  <GENERIC_NAME>
Ioforminol

>  <SYNONYMS>
Ioforminol

$$$$

 OpenBabel05042401512D

 38 41  0  0  1  0  0  0  0  0999 V2000
    1.0360   -4.1481    0.0000 C   0  0  0  0  0  0  0  0  0  0  0  0
    0.9773   -3.3252    0.0000 C   0  0  0  0  0  0  0  0  0  0  0  0
    1.6085   -2.7940    0.0000 N   0  0  0  0  0  0  0  0  0  0  0  0
    1.2984   -2.0295    0.0000 C   0  0  0  0  0  0  0  0  0  0  0  0
    1.6590   -1.2875    0.0000 C   0  0  0  0  0  0  0  0  0  0  0  0
    1.1967   -0.6042    0.0000 C   0  0  0  0  0  0  0  0  0  0  0  0
    0.3738   -0.6629    0.0000 C   0  0  0  0  0  0  0  0  0  0  0  0
    0.0132   -1.4049    0.0000 C   0  0  0  0  0  0  0  0  0  0  0  0
    0.4755   -2.0882    0.0000 C   0  0  0  0  0  0  0  0  0  0  0  0
    0.2770   -2.8890    0.0000 S   0  0  0  0  0  0  0  0  0  0  0  0
    1.5573    0.1378    0.0000 C   0  0  1  0  0  0  0  0  0  0  0  0
    0.7344    0.0791    0.0000 C   0  0  0  0  0  0  0  0  0  0  0  0
    0.2721    0.7624    0.0000 C   0  0  1  0  0  0  0  0  0  0  0  0
    0.6327    1.5044    0.0000 C   0  0  2  0  0  0  0  0  0  0  0  0
   -0.1902    1.4457    0.0000 O   0  0  0  0  0  0  0  0  0  0  0  0
    1.4556    1.5631    0.0000 C   0  0  0  0  0  0  0  0  0  0  0  0
    1.8162    2.3052    0.0000 C   0  0  0  0  0  0  0  0  0  0  0  0
    2.6391    2.3639    0.0000 C   0  0  0  0  0  0  0  0  0  0  0  0
    2.9997    3.1059    0.0000 C   0  0  1  0  0  0  0  0  0  0  0  0
    3.8226    3.1646    0.0000 C   0  0  1  0  0  0  0  0  0  0  0  0
    4.2849    2.4813    0.0000 C   0  0  2  0  0  0  0  0  0  0  0  0
    3.9243    1.7393    0.0000 C   0  0  0  0  0  0  0  0  0  0  0  0
    3.1014    1.6806    0.0000 O   0  0  0  0  0  0  0  0  0  0  0  0
    4.3866    1.0560    0.0000 C   0  0  0  0  0  0  0  0  0  0  0  0
    4.0260    0.3140    0.0000 C   0  0  2  0  0  0  0  0  0  0  0  0
    3.2031    0.2553    0.0000 C   0  0  0  0  0  0  0  0  0  0  0  0
    2.8425   -0.4868    0.0000 C   0  0  0  0  0  0  0  0  0  0  0  0
    3.3048   -1.1701    0.0000 O   0  0  0  0  0  0  0  0  0  0  0  0
    2.0196   -0.5455    0.0000 O   0  0  0  0  0  0  0  0  0  0  0  0
    4.4883   -0.3693    0.0000 O   0  0  0  0  0  0  0  0  0  0  0  0
    5.0856    1.4942    0.0000 C   0  0  0  0  0  0  0  0  0  0  0  0
    5.1407    0.7215    0.0000 C   0  0  0  0  0  0  0  0  0  0  0  0
    5.1078    2.5400    0.0000 C   0  0  0  0  0  0  0  0  0  0  0  0
    5.5701    1.8567    0.0000 C   0  0  0  0  0  0  0  0  0  0  0  0
    6.3930    1.9155    0.0000 C   0  0  0  0  0  0  0  0  0  0  0  0
    4.1832    3.9066    0.0000 O   0  0  0  0  0  0  0  0  0  0  0  0
    2.5374    3.7892    0.0000 C   0  0  0  0  0  0  0  0  0  0  0  0
    0.5739    2.3273    0.0000 C   0  0  0  0  0  0  0  0  0  0  0  0
  1  2  1  0  0  0  0
  2  3  2  0  0  0  0
  2 10  1  0  0  0  0
  3  4  1  0  0  0  0
  4  5  2  0  0  0  0
  4  9  1  0  0  0  0
  5  6  1  0  0  0  0
  6  7  2  0  0  0  0
  7  8  1  0  0  0  0
  8  9  2  0  0  0  0
  9 10  1  0  0  0  0
 11  6  1  1  0  0  0
 11 12  1  0  0  0  0
 11 29  1  0  0  0  0
 13 12  1  6  0  0  0
 13 14  1  0  0  0  0
 13 15  1  0  0  0  0
 14 15  1  0  0  0  0
 14 16  1  0  0  0  0
 14 38  1  1  0  0  0
 16 17  1  0  0  0  0
 17 18  1  0  0  0  0
 18 19  1  0  0  0  0
 19 20  1  0  0  0  0
 19 37  1  6  0  0  0
 20 21  1  0  0  0  0
 20 36  1  6  0  0  0
 21 22  1  0  0  0  0
 21 33  1  1  0  0  0
 22 23  2  0  0  0  0
 22 24  1  0  0  0  0
 24 25  1  0  0  0  0
 24 31  1  0  0  0  0
 24 32  1  0  0  0  0
 25 26  1  0  0  0  0
 25 30  1  1  0  0  0
 26 27  1  0  0  0  0
 27 28  2  0  0  0  0
 27 29  1  0  0  0  0
 33 34  1  0  0  0  0
 34 35  2  0  0  0  0
M  END
>  <DATABASE_ID>
DB12391

>  <DATABASE_NAME>
drugbank

>  <SMILES>
C[C@H]1CCC[C@@]2(C)O[C@H]2C[C@H](OC(=O)C[C@H](O)C(C)(C)C(=O)[C@H](CC=C)[C@H]1O)C1=CC=C2SC(C)=NC2=C1

>  <INCHI_IDENTIFIER>
InChI=1S/C30H41NO6S/c1-7-9-20-27(34)17(2)10-8-13-30(6)25(37-30)15-22(19-11-12-23-21(14-19)31-18(3)38-23)36-26(33)16-24(32)29(4,5)28(20)35/h7,11-12,14,17,20,22,24-25,27,32,34H,1,8-10,13,15-16H2,2-6H3/t17-,20+,22-,24-,25-,27-,30+/m0/s1

>  <INCHI_KEY>
BFZKMNSQCNVFGM-UCEYFQQTSA-N

>  <FORMULA>
C30H41NO6S

>  <MOLECULAR_WEIGHT>
543.72

>  <EXACT_MASS>
543.265459218

>  <JCHEM_ACCEPTOR_COUNT>
6

>  <JCHEM_ATOM_COUNT>
79

>  <JCHEM_AVERAGE_POLARIZABILITY>
59.69193448904958

>  <JCHEM_BIOAVAILABILITY>
0

>  <JCHEM_DONOR_COUNT>
2

>  <JCHEM_FORMAL_CHARGE>
0

>  <JCHEM_GHOSE_FILTER>
0

>  <JCHEM_IUPAC>
(1S,3S,7S,10R,11S,12S,16R)-7,11-dihydroxy-8,8,12,16-tetramethyl-3-(2-methyl-1,3-benzothiazol-5-yl)-10-(prop-2-en-1-yl)-4,17-dioxabicyclo[14.1.0]heptadecane-5,9-dione

>  <ALOGPS_LOGP>
4.42

>  <JCHEM_LOGP>
5.102378217999998

>  <ALOGPS_LOGS>
-5.35

>  <JCHEM_MDDR_LIKE_RULE>
0

>  <JCHEM_NUMBER_OF_RINGS>
4

>  <JCHEM_PHYSIOLOGICAL_CHARGE>
0

>  <JCHEM_PKA>
14.71635787035969

>  <JCHEM_PKA_STRONGEST_ACIDIC>
14.082300699466764

>  <JCHEM_PKA_STRONGEST_BASIC>
2.8779554905747644

>  <JCHEM_POLAR_SURFACE_AREA>
109.25000000000001

>  <JCHEM_REFRACTIVITY>
145.71490000000003

>  <JCHEM_ROTATABLE_BOND_COUNT>
3

>  <JCHEM_RULE_OF_FIVE>
0

>  <ALOGPS_SOLUBILITY>
2.40e-03 g/l

>  <JCHEM_TRADITIONAL_IUPAC>
sagopilone

>  <JCHEM_VEBER_RULE>
0

>  <DRUGBANK_ID>
DB12391

>  <SECONDARY_ACCESSION_NUMBERS>
DB05654

>  <DRUG_GROUPS>
investigational

>  <GENERIC_NAME>
Sagopilone

>  <SYNONYMS>
Sagopilone

$$$$

 OpenBabel05042401512D

 28 28  0  0  1  0  0  0  0  0999 V2000
    0.7145    2.0625    0.0000 C   0  0  0  0  0  0  0  0  0  0  0  0
    0.7145    1.2375    0.0000 C   0  0  2  0  0  0  0  0  0  0  0  0
    1.4289    0.8250    0.0000 C   0  0  2  0  0  0  0  0  0  0  0  0
    1.4289   -0.0000    0.0000 C   0  0  2  0  0  0  0  0  0  0  0  0
    0.7145   -0.4125    0.0000 C   0  0  0  0  0  0  0  0  0  0  0  0
    0.0000    0.0000    0.0000 C   0  0  0  0  0  0  0  0  0  0  0  0
    0.0000    0.8250    0.0000 C   0  0  0  0  0  0  0  0  0  0  0  0
   -0.7145    1.2375    0.0000 O   0  0  0  0  0  0  0  0  0  0  0  0
   -0.7145   -0.4125    0.0000 O   0  0  0  0  0  0  0  0  0  0  0  0
   -1.4289    0.0000    0.0000 C   0  0  0  0  0  0  0  0  0  0  0  0
    0.7145   -1.2375    0.0000 O   0  0  0  0  0  0  0  0  0  0  0  0
   -0.0000   -1.6500    0.0000 C   0  0  0  0  0  0  0  0  0  0  0  0
    2.1434   -0.4125    0.0000 O   0  0  0  0  0  0  0  0  0  0  0  0
    2.1434    1.2375    0.0000 C   0  0  0  0  0  0  0  0  0  0  0  0
    2.1434    2.0625    0.0000 C   0  0  0  0  0  0  0  0  0  0  0  0
    2.8579    2.4750    0.0000 C   0  0  0  0  0  0  0  0  0  0  0  0
    3.5724    2.0625    0.0000 C   0  0  0  0  0  0  0  0  0  0  0  0
    2.8579    3.3000    0.0000 C   0  0  0  0  0  0  0  0  0  0  0  0
    3.5724    3.7125    0.0000 C   0  0  0  0  0  0  0  0  0  0  0  0
    3.5724    4.5375    0.0000 C   0  0  0  0  0  0  0  0  0  0  0  0
    4.2868    4.9500    0.0000 C   0  0  0  0  0  0  0  0  0  0  0  0
    5.0013    4.5375    0.0000 C   0  0  0  0  0  0  0  0  0  0  0  0
    4.2868    5.7750    0.0000 C   0  0  0  0  0  0  0  0  0  0  0  0
    5.0013    6.1875    0.0000 C   0  0  0  0  0  0  0  0  0  0  0  0
    5.0013    7.0125    0.0000 C   0  0  0  0  0  0  0  0  0  0  0  0
    5.7158    7.4250    0.0000 C   0  0  0  0  0  0  0  0  0  0  0  0
    5.7158    8.2500    0.0000 C   0  0  0  0  0  0  0  0  0  0  0  0
    6.4302    7.0125    0.0000 C   0  0  0  0  0  0  0  0  0  0  0  0
  2  1  1  6  0  0  0
  2  3  1  0  0  0  0
  2  7  1  0  0  0  0
  3  4  1  0  0  0  0
  3 14  1  1  0  0  0
  4  5  1  0  0  0  0
  4 13  1  1  0  0  0
  5  6  2  0  0  0  0
  5 11  1  0  0  0  0
  6  7  1  0  0  0  0
  6  9  1  0  0  0  0
  7  8  2  0  0  0  0
  9 10  1  0  0  0  0
 11 12  1  0  0  0  0
 14 15  1  0  0  0  0
 15 16  2  0  0  0  0
 16 17  1  0  0  0  0
 16 18  1  0  0  0  0
 18 19  1  0  0  0  0
 19 20  1  0  0  0  0
 20 21  2  0  0  0  0
 21 22  1  0  0  0  0
 21 23  1  0  0  0  0
 23 24  1  0  0  0  0
 24 25  1  0  0  0  0
 25 26  2  0  0  0  0
 26 27  1  0  0  0  0
 26 28  1  0  0  0  0
M  END
>  <DATABASE_ID>
DB12326

>  <DATABASE_NAME>
drugbank

>  <SMILES>
COC1=C(OC)C(=O)[C@H](C)[C@@H](C\C=C(/C)CC\C=C(/C)CCC=C(C)C)[C@H]1O

>  <INCHI_IDENTIFIER>
InChI=1S/C24H38O4/c1-16(2)10-8-11-17(3)12-9-13-18(4)14-15-20-19(5)21(25)23(27-6)24(28-7)22(20)26/h10,12,14,19-20,22,26H,8-9,11,13,15H2,1-7H3/b17-12+,18-14+/t19-,20-,22-/m1/s1

>  <INCHI_KEY>
LJTSIMVOOOLKOL-FNRDIUJOSA-N

>  <FORMULA>
C24H38O4

>  <MOLECULAR_WEIGHT>
390.564

>  <EXACT_MASS>
390.277009704

>  <JCHEM_ACCEPTOR_COUNT>
4

>  <JCHEM_ATOM_COUNT>
66

>  <JCHEM_AVERAGE_POLARIZABILITY>
46.92576186069962

>  <JCHEM_BIOAVAILABILITY>
1

>  <JCHEM_DONOR_COUNT>
1

>  <JCHEM_FORMAL_CHARGE>
0

>  <JCHEM_GHOSE_FILTER>
1

>  <JCHEM_IUPAC>
(4R,5R,6R)-4-hydroxy-2,3-dimethoxy-6-methyl-5-[(2E,6E)-3,7,11-trimethyldodeca-2,6,10-trien-1-yl]cyclohex-2-en-1-one

>  <ALOGPS_LOGP>
5.21

>  <JCHEM_LOGP>
4.733890150333332

>  <ALOGPS_LOGS>
-4.99

>  <JCHEM_MDDR_LIKE_RULE>
0

>  <JCHEM_NUMBER_OF_RINGS>
1

>  <JCHEM_PHYSIOLOGICAL_CHARGE>
0

>  <JCHEM_PKA>
18.705581468793376

>  <JCHEM_PKA_STRONGEST_ACIDIC>
13.512348756843888

>  <JCHEM_PKA_STRONGEST_BASIC>
-3.4494900995692532

>  <JCHEM_POLAR_SURFACE_AREA>
55.760000000000005

>  <JCHEM_REFRACTIVITY>
120.0712

>  <JCHEM_ROTATABLE_BOND_COUNT>
10

>  <JCHEM_RULE_OF_FIVE>
1

>  <ALOGPS_SOLUBILITY>
3.99e-03 g/l

>  <JCHEM_TRADITIONAL_IUPAC>
(4R,5R,6R)-4-hydroxy-2,3-dimethoxy-6-methyl-5-[(2E,6E)-3,7,11-trimethyldodeca-2,6,10-trien-1-yl]cyclohex-2-en-1-one

>  <JCHEM_VEBER_RULE>
0

>  <DRUGBANK_ID>
DB12326

>  <DRUG_GROUPS>
investigational

>  <GENERIC_NAME>
Antroquinonol

>  <SYNONYMS>
HOCENA

$$$$

 OpenBabel05042401512D

 23 25  0  0  0  0  0  0  0  0999 V2000
   -0.9054   -0.4293    0.0000 C   0  0  0  0  0  0  0  0  0  0  0  0
   -0.0984   -0.2577    0.0000 O   0  0  0  0  0  0  0  0  0  0  0  0
    0.1565    0.5269    0.0000 C   0  0  0  0  0  0  0  0  0  0  0  0
   -0.3955    1.1400    0.0000 C   0  0  0  0  0  0  0  0  0  0  0  0
   -0.1406    1.9246    0.0000 C   0  0  0  0  0  0  0  0  0  0  0  0
    0.6664    2.0961    0.0000 C   0  0  0  0  0  0  0  0  0  0  0  0
    1.2184    1.4830    0.0000 C   0  0  0  0  0  0  0  0  0  0  0  0
    0.9635    0.6984    0.0000 C   0  0  0  0  0  0  0  0  0  0  0  0
    1.9721    1.8186    0.0000 C   0  0  0  0  0  0  0  0  0  0  0  0
    1.8859    2.6391    0.0000 C   0  0  0  0  0  0  0  0  0  0  0  0
    1.0789    2.8106    0.0000 N   0  0  0  0  0  0  0  0  0  0  0  0
    2.6866    1.4061    0.0000 C   0  0  0  0  0  0  0  0  0  0  0  0
    3.4010    1.8186    0.0000 C   0  0  0  0  0  0  0  0  0  0  0  0
    4.1155    1.4061    0.0000 N   0  0  0  0  0  0  0  0  0  0  0  0
    4.8300    1.8186    0.0000 C   0  0  0  0  0  0  0  0  0  0  0  0
    4.8300    2.6436    0.0000 O   0  0  0  0  0  0  0  0  0  0  0  0
    5.5445    1.4061    0.0000 C   0  0  0  0  0  0  0  0  0  0  0  0
    6.2589    1.8186    0.0000 C   0  0  0  0  0  0  0  0  0  0  0  0
    6.9734    1.4061    0.0000 C   0  0  0  0  0  0  0  0  0  0  0  0
    7.6879    1.8186    0.0000 O   0  0  0  0  0  0  0  0  0  0  0  0
    6.9734    0.5811    0.0000 C   0  0  0  0  0  0  0  0  0  0  0  0
    6.2589    0.1686    0.0000 C   0  0  0  0  0  0  0  0  0  0  0  0
    5.5445    0.5811    0.0000 O   0  0  0  0  0  0  0  0  0  0  0  0
  1  2  1  0  0  0  0
  2  3  1  0  0  0  0
  3  4  2  0  0  0  0
  3  8  1  0  0  0  0
  4  5  1  0  0  0  0
  5  6  2  0  0  0  0
  6  7  1  0  0  0  0
  6 11  1  0  0  0  0
  7  8  2  0  0  0  0
  7  9  1  0  0  0  0
  9 10  2  0  0  0  0
  9 12  1  0  0  0  0
 10 11  1  0  0  0  0
 12 13  1  0  0  0  0
 13 14  1  0  0  0  0
 14 15  1  0  0  0  0
 15 16  2  0  0  0  0
 15 17  1  0  0  0  0
 17 18  2  0  0  0  0
 17 23  1  0  0  0  0
 18 19  1  0  0  0  0
 19 20  2  0  0  0  0
 19 21  1  0  0  0  0
 21 22  2  0  0  0  0
 22 23  1  0  0  0  0
M  END
>  <DATABASE_ID>
DB12288

>  <DATABASE_NAME>
drugbank

>  <SMILES>
COC1=CC=C2NC=C(CCNC(=O)C3=CC(=O)C=CO3)C2=C1

>  <INCHI_IDENTIFIER>
InChI=1S/C17H16N2O4/c1-22-13-2-3-15-14(9-13)11(10-19-15)4-6-18-17(21)16-8-12(20)5-7-23-16/h2-3,5,7-10,19H,4,6H2,1H3,(H,18,21)

>  <INCHI_KEY>
PNTNBIHOAPJYDB-UHFFFAOYSA-N

>  <FORMULA>
C17H16N2O4

>  <MOLECULAR_WEIGHT>
312.325

>  <EXACT_MASS>
312.111007003

>  <JCHEM_ACCEPTOR_COUNT>
4

>  <JCHEM_ATOM_COUNT>
39

>  <JCHEM_AVERAGE_POLARIZABILITY>
32.53667051607051

>  <JCHEM_BIOAVAILABILITY>
1

>  <JCHEM_DONOR_COUNT>
2

>  <JCHEM_FORMAL_CHARGE>
0

>  <JCHEM_GHOSE_FILTER>
1

>  <JCHEM_IUPAC>
N-[2-(5-methoxy-1H-indol-3-yl)ethyl]-4-oxo-4H-pyran-2-carboxamide

>  <ALOGPS_LOGP>
2.04

>  <JCHEM_LOGP>
1.5897645580000004

>  <ALOGPS_LOGS>
-4.31

>  <JCHEM_MDDR_LIKE_RULE>
0

>  <JCHEM_NUMBER_OF_RINGS>
3

>  <JCHEM_PHYSIOLOGICAL_CHARGE>
0

>  <JCHEM_PKA>
16.496816835625065

>  <JCHEM_PKA_STRONGEST_ACIDIC>
14.724078324649085

>  <JCHEM_PKA_STRONGEST_BASIC>
-1.3993899733105537

>  <JCHEM_POLAR_SURFACE_AREA>
80.42

>  <JCHEM_REFRACTIVITY>
86.87699999999998

>  <JCHEM_ROTATABLE_BOND_COUNT>
5

>  <JCHEM_RULE_OF_FIVE>
1

>  <ALOGPS_SOLUBILITY>
1.54e-02 g/l

>  <JCHEM_TRADITIONAL_IUPAC>
N-[2-(5-methoxy-1H-indol-3-yl)ethyl]-4-oxopyran-2-carboxamide

>  <JCHEM_VEBER_RULE>
0

>  <DRUGBANK_ID>
DB12288

>  <DRUG_GROUPS>
investigational

>  <GENERIC_NAME>
Piromelatine

>  <SYNONYMS>
Piromelatine

$$$$

 OpenBabel05042401512D

 28 30  0  0  1  0  0  0  0  0999 V2000
   -0.8125   -3.4433    0.0000 C   0  0  0  0  0  0  0  0  0  0  0  0
   -0.2822   -4.0752    0.0000 C   0  0  1  0  0  0  0  0  0  0  0  0
    0.4323   -4.4877    0.0000 C   0  0  0  0  0  0  0  0  0  0  0  0
    0.4323   -5.3127    0.0000 S   0  0  0  0  0  0  0  0  0  0  0  0
    1.2448   -5.1695    0.0000 O   0  0  0  0  0  0  0  0  0  0  0  0
    0.7145   -6.0880    0.0000 O   0  0  0  0  0  0  0  0  0  0  0  0
   -0.2822   -5.7252    0.0000 N   0  0  0  0  0  0  0  0  0  0  0  0
   -0.9966   -5.3127    0.0000 C   0  0  0  0  0  0  0  0  0  0  0  0
   -0.9966   -4.4877    0.0000 N   0  0  0  0  0  0  0  0  0  0  0  0
   -1.7111   -5.7252    0.0000 N   0  0  0  0  0  0  0  0  0  0  0  0
   -0.2822   -6.5502    0.0000 C   0  0  0  0  0  0  0  0  0  0  0  0
    0.2481   -3.4433    0.0000 C   0  0  0  0  0  0  0  0  0  0  0  0
   -0.0340   -2.6680    0.0000 C   0  0  0  0  0  0  0  0  0  0  0  0
    0.4963   -2.0360    0.0000 C   0  0  0  0  0  0  0  0  0  0  0  0
    1.3087   -2.1793    0.0000 C   0  0  0  0  0  0  0  0  0  0  0  0
    1.5909   -2.9545    0.0000 C   0  0  0  0  0  0  0  0  0  0  0  0
    1.0606   -3.5865    0.0000 C   0  0  0  0  0  0  0  0  0  0  0  0
    1.3428   -4.3618    0.0000 F   0  0  0  0  0  0  0  0  0  0  0  0
    0.2141   -1.2608    0.0000 N   0  0  0  0  0  0  0  0  0  0  0  0
   -0.5984   -1.1175    0.0000 C   0  0  0  0  0  0  0  0  0  0  0  0
   -1.1287   -1.7495    0.0000 O   0  0  0  0  0  0  0  0  0  0  0  0
   -0.8805   -0.3423    0.0000 C   0  0  0  0  0  0  0  0  0  0  0  0
   -1.6930   -0.1990    0.0000 C   0  0  0  0  0  0  0  0  0  0  0  0
   -1.9752    0.5762    0.0000 C   0  0  0  0  0  0  0  0  0  0  0  0
   -1.4449    1.2082    0.0000 C   0  0  0  0  0  0  0  0  0  0  0  0
   -0.6324    1.0650    0.0000 C   0  0  0  0  0  0  0  0  0  0  0  0
   -0.3502    0.2897    0.0000 N   0  0  0  0  0  0  0  0  0  0  0  0
   -1.7270    1.9835    0.0000 F   0  0  0  0  0  0  0  0  0  0  0  0
  2  1  1  1  0  0  0
  2  3  1  0  0  0  0
  2  9  1  0  0  0  0
  2 12  1  0  0  0  0
  3  4  1  0  0  0  0
  4  5  2  0  0  0  0
  4  6  2  0  0  0  0
  4  7  1  0  0  0  0
  7  8  1  0  0  0  0
  7 11  1  0  0  0  0
  8  9  2  0  0  0  0
  8 10  1  0  0  0  0
 12 13  2  0  0  0  0
 12 17  1  0  0  0  0
 13 14  1  0  0  0  0
 14 15  2  0  0  0  0
 14 19  1  0  0  0  0
 15 16  1  0  0  0  0
 16 17  2  0  0  0  0
 17 18  1  0  0  0  0
 19 20  1  0  0  0  0
 20 21  2  0  0  0  0
 20 22  1  0  0  0  0
 22 23  2  0  0  0  0
 22 27  1  0  0  0  0
 23 24  1  0  0  0  0
 24 25  2  0  0  0  0
 25 26  1  0  0  0  0
 25 28  1  0  0  0  0
 26 27  2  0  0  0  0
M  END
>  <DATABASE_ID>
DB12285

>  <DATABASE_NAME>
drugbank

>  <SMILES>
CN1C(N)=N[C@@](C)(CS1(=O)=O)C1=CC(NC(=O)C2=CC=C(F)C=N2)=CC=C1F

>  <INCHI_IDENTIFIER>
InChI=1S/C17H17F2N5O3S/c1-17(9-28(26,27)24(2)16(20)23-17)12-7-11(4-5-13(12)19)22-15(25)14-6-3-10(18)8-21-14/h3-8H,9H2,1-2H3,(H2,20,23)(H,22,25)/t17-/m0/s1

>  <INCHI_KEY>
YHYKUSGACIYRML-KRWDZBQOSA-N

>  <FORMULA>
C17H17F2N5O3S

>  <MOLECULAR_WEIGHT>
409.41

>  <EXACT_MASS>
409.102016927

>  <JCHEM_ACCEPTOR_COUNT>
6

>  <JCHEM_ATOM_COUNT>
45

>  <JCHEM_AVERAGE_POLARIZABILITY>
38.38681560763743

>  <JCHEM_BIOAVAILABILITY>
1

>  <JCHEM_DONOR_COUNT>
2

>  <JCHEM_FORMAL_CHARGE>
0

>  <JCHEM_GHOSE_FILTER>
1

>  <JCHEM_IUPAC>
N-{3-[(5R)-3-amino-2,5-dimethyl-1,1-dioxo-5,6-dihydro-2H-1lambda6,2,4-thiadiazin-5-yl]-4-fluorophenyl}-5-fluoropyridine-2-carboxamide

>  <ALOGPS_LOGP>
1.83

>  <JCHEM_LOGP>
1.2279412743333333

>  <ALOGPS_LOGS>
-4.05

>  <JCHEM_MDDR_LIKE_RULE>
0

>  <JCHEM_NUMBER_OF_RINGS>
3

>  <JCHEM_PHYSIOLOGICAL_CHARGE>
0

>  <JCHEM_PKA>
17.74435947279619

>  <JCHEM_PKA_STRONGEST_ACIDIC>
11.554768353694309

>  <JCHEM_PKA_STRONGEST_BASIC>
5.677612160336225

>  <JCHEM_POLAR_SURFACE_AREA>
117.75000000000001

>  <JCHEM_REFRACTIVITY>
98.79529999999998

>  <JCHEM_ROTATABLE_BOND_COUNT>
3

>  <JCHEM_RULE_OF_FIVE>
1

>  <ALOGPS_SOLUBILITY>
3.67e-02 g/l

>  <JCHEM_TRADITIONAL_IUPAC>
N-{3-[(5R)-3-amino-2,5-dimethyl-1,1-dioxo-6H-1lambda6,2,4-thiadiazin-5-yl]-4-fluorophenyl}-5-fluoropyridine-2-carboxamide

>  <JCHEM_VEBER_RULE>
0

>  <DRUGBANK_ID>
DB12285

>  <SECONDARY_ACCESSION_NUMBERS>
DB08929

>  <DRUG_GROUPS>
investigational

>  <GENERIC_NAME>
Verubecestat

>  <SYNONYMS>
Verubecestat

$$$$

 OpenBabel05042401512D

 60 60  0  0  1  0  0  0  0  0999 V2000
    0.3547    0.0679    0.0000 O   0  0  0  0  0  0  0  0  0  0  0  0
   -0.3596   -0.3445    0.0000 C   0  0  2  0  0  0  0  0  0  0  0  0
   -0.3596   -1.1695    0.0000 C   0  0  1  0  0  0  0  0  0  0  0  0
   -1.0743    0.0679    0.0000 O   0  0  0  0  0  0  0  0  0  0  0  0
   -1.0743   -1.5820    0.0000 C   0  0  2  0  0  0  0  0  0  0  0  0
   -1.7888   -0.3445    0.0000 C   0  0  1  0  0  0  0  0  0  0  0  0
   -1.7888   -1.1695    0.0000 C   0  0  2  0  0  0  0  0  0  0  0  0
    0.3547   -1.5820    0.0000 O   0  0  0  0  0  0  0  0  0  0  0  0
   -1.0743   -2.4069    0.0000 O   0  0  0  0  0  0  0  0  0  0  0  0
   -2.5032   -1.5820    0.0000 O   0  0  0  0  0  0  0  0  0  0  0  0
   -2.5032    0.0679    0.0000 C   0  0  0  0  0  0  0  0  0  0  0  0
   -3.2177   -0.3445    0.0000 O   0  0  0  0  0  0  0  0  0  0  0  0
    8.2381    1.1413    0.0000 C   0  0  0  0  0  0  0  0  0  0  0  0
    8.9440    0.7140    0.0000 C   0  0  0  0  0  0  0  0  0  0  0  0
    6.0865    0.7733    0.0000 C   0  0  0  0  0  0  0  0  0  0  0  0
    3.9178   -0.4190    0.0000 C   0  0  0  0  0  0  0  0  0  0  0  0
    4.6408   -0.0215    0.0000 C   0  0  0  0  0  0  0  0  0  0  0  0
    5.3465   -0.4487    0.0000 C   0  0  0  0  0  0  0  0  0  0  0  0
    6.0693   -0.0513    0.0000 C   0  0  0  0  0  0  0  0  0  0  0  0
    6.7751   -0.4786    0.0000 C   0  0  0  0  0  0  0  0  0  0  0  0
    7.4981   -0.0810    0.0000 C   0  0  0  0  0  0  0  0  0  0  0  0
    8.2038   -0.5084    0.0000 C   0  0  0  0  0  0  0  0  0  0  0  0
    8.9267   -0.1109    0.0000 C   0  0  0  0  0  0  0  0  0  0  0  0
    7.5153    0.7435    0.0000 C   0  0  0  0  0  0  0  0  0  0  0  0
    6.8095    1.1709    0.0000 C   0  0  0  0  0  0  0  0  0  0  0  0
    3.2119    0.0084    0.0000 C   0  0  2  0  0  0  0  0  0  0  0  0
    2.4891   -0.3893    0.0000 C   0  0  2  0  0  0  0  0  0  0  0  0
    1.7833    0.0380    0.0000 C   0  0  2  0  0  0  0  0  0  0  0  0
    1.0604   -0.3594    0.0000 C   0  0  0  0  0  0  0  0  0  0  0  0
    5.3808    1.2003    0.0000 C   0  0  0  0  0  0  0  0  0  0  0  0
    2.4718   -1.2139    0.0000 O   0  0  0  0  0  0  0  0  0  0  0  0
    1.8005    0.8628    0.0000 N   0  0  0  0  0  0  0  0  0  0  0  0
    1.0760    1.2576    0.0000 C   0  0  0  0  0  0  0  0  0  0  0  0
    0.3720    0.8278    0.0000 C   0  0  0  0  0  0  0  0  0  0  0  0
   -7.5155    1.8712    0.0000 C   0  0  0  0  0  0  0  0  0  0  0  0
   -6.8114    2.3012    0.0000 C   0  0  0  0  0  0  0  0  0  0  0  0
   -6.0869    1.9063    0.0000 C   0  0  0  0  0  0  0  0  0  0  0  0
   -5.3828    2.3365    0.0000 C   0  0  0  0  0  0  0  0  0  0  0  0
   -4.6585    1.9416    0.0000 C   0  0  0  0  0  0  0  0  0  0  0  0
   -3.9544    2.3716    0.0000 C   0  0  0  0  0  0  0  0  0  0  0  0
   -3.2299    1.9769    0.0000 C   0  0  0  0  0  0  0  0  0  0  0  0
   -2.5256    2.4069    0.0000 C   0  0  0  0  0  0  0  0  0  0  0  0
   -1.8013    2.0120    0.0000 C   0  0  0  0  0  0  0  0  0  0  0  0
   -7.4951    1.0464    0.0000 C   0  0  0  0  0  0  0  0  0  0  0  0
   -6.7707    0.6517    0.0000 C   0  0  0  0  0  0  0  0  0  0  0  0
   -6.0665    1.0817    0.0000 C   0  0  0  0  0  0  0  0  0  0  0  0
   -5.3420    0.6869    0.0000 C   0  0  0  0  0  0  0  0  0  0  0  0
   -4.6379    1.1168    0.0000 C   0  0  0  0  0  0  0  0  0  0  0  0
   -3.9135    0.7220    0.0000 C   0  0  0  0  0  0  0  0  0  0  0  0
   -3.2093    1.1521    0.0000 C   0  0  0  0  0  0  0  0  0  0  0  0
   -2.4849    0.7573    0.0000 C   0  0  0  0  0  0  0  0  0  0  0  0
   -1.7808    1.1872    0.0000 C   0  0  0  0  0  0  0  0  0  0  0  0
   -1.0564    0.7925    0.0000 C   0  0  0  0  0  0  0  0  0  0  0  0
   -0.3524    1.2225    0.0000 C   0  0  0  0  0  0  0  0  0  0  0  0
    1.0557    2.0826    0.0000 O   0  0  0  0  0  0  0  0  0  0  0  0
    3.2292    0.8332    0.0000 O   0  0  0  0  0  0  0  0  0  0  0  0
   -8.1991    0.6164    0.0000 C   0  0  0  0  0  0  0  0  0  0  0  0
   -8.9236    1.0113    0.0000 C   0  0  0  0  0  0  0  0  0  0  0  0
   -8.9440    1.8361    0.0000 C   0  0  0  0  0  0  0  0  0  0  0  0
   -8.2398    2.2660    0.0000 C   0  0  0  0  0  0  0  0  0  0  0  0
  2  3  1  0  0  0  0
  2  4  1  0  0  0  0
  2  1  1  6  0  0  0
  3  5  1  0  0  0  0
  3  8  1  6  0  0  0
  4  6  1  0  0  0  0
  5  7  1  0  0  0  0
  5  9  1  1  0  0  0
  6  7  1  0  0  0  0
  6 11  1  1  0  0  0
  7 10  1  1  0  0  0
 12 11  1  0  0  0  0
 13 24  1  0  0  0  0
 14 13  1  0  0  0  0
 15 30  1  0  0  0  0
 16 17  1  0  0  0  0
 17 18  1  0  0  0  0
 18 19  1  0  0  0  0
 19 20  1  0  0  0  0
 20 21  1  0  0  0  0
 21 22  1  0  0  0  0
 22 23  1  0  0  0  0
 23 14  1  0  0  0  0
 24 25  1  0  0  0  0
 25 15  1  0  0  0  0
 26 16  1  6  0  0  0
 26 56  1  0  0  0  0
 27 26  1  0  0  0  0
 27 31  1  1  0  0  0
 27 28  1  0  0  0  0
 28 29  1  6  0  0  0
 28 32  1  0  0  0  0
 29  1  1  0  0  0  0
 32 33  1  0  0  0  0
 33 34  1  0  0  0  0
 33 55  2  0  0  0  0
 35 36  1  0  0  0  0
 36 37  1  0  0  0  0
 37 38  1  0  0  0  0
 38 39  1  0  0  0  0
 39 40  1  0  0  0  0
 40 41  1  0  0  0  0
 41 42  1  0  0  0  0
 42 43  1  0  0  0  0
 44 45  1  0  0  0  0
 45 46  1  0  0  0  0
 46 47  1  0  0  0  0
 47 48  1  0  0  0  0
 48 49  1  0  0  0  0
 49 50  1  0  0  0  0
 50 51  1  0  0  0  0
 51 52  1  0  0  0  0
 52 53  1  0  0  0  0
 53 54  1  0  0  0  0
 54 34  1  0  0  0  0
 57 44  1  0  0  0  0
 57 58  1  0  0  0  0
 58 59  1  0  0  0  0
 59 60  1  0  0  0  0
 60 35  1  0  0  0  0
M  END
>  <DATABASE_ID>
DB12232

>  <DATABASE_NAME>
drugbank

>  <SMILES>
CCCCCCCCCCCCCCCCCCCCCCCCCC(=O)N[C@@H](CO[C@H]1O[C@H](CO)[C@H](O)[C@H](O)[C@H]1O)[C@H](O)[C@H](O)CCCCCCCCCCCCCC

>  <INCHI_IDENTIFIER>
InChI=1S/C50H99NO9/c1-3-5-7-9-11-13-15-17-18-19-20-21-22-23-24-25-26-27-29-31-33-35-37-39-45(54)51-42(41-59-50-49(58)48(57)47(56)44(40-52)60-50)46(55)43(53)38-36-34-32-30-28-16-14-12-10-8-6-4-2/h42-44,46-50,52-53,55-58H,3-41H2,1-2H3,(H,51,54)/t42-,43+,44+,46-,47-,48-,49+,50-/m0/s1

>  <INCHI_KEY>
VQFKFAKEUMHBLV-BYSUZVQFSA-N

>  <FORMULA>
C50H99NO9

>  <MOLECULAR_WEIGHT>
858.3224

>  <EXACT_MASS>
857.731983771

>  <JCHEM_ACCEPTOR_COUNT>
9

>  <JCHEM_ATOM_COUNT>
159

>  <JCHEM_AVERAGE_POLARIZABILITY>
110.19194957174871

>  <JCHEM_BIOAVAILABILITY>
0

>  <JCHEM_DONOR_COUNT>
7

>  <JCHEM_FORMAL_CHARGE>
0

>  <JCHEM_GHOSE_FILTER>
0

>  <JCHEM_IUPAC>
N-[(2S,3S,4R)-3,4-dihydroxy-1-{[(2S,3R,4S,5R,6R)-3,4,5-trihydroxy-6-(hydroxymethyl)oxan-2-yl]oxy}octadecan-2-yl]hexacosanamide

>  <ALOGPS_LOGP>
8.69

>  <JCHEM_LOGP>
12.671316737666668

>  <ALOGPS_LOGS>
-6.38

>  <JCHEM_MDDR_LIKE_RULE>
0

>  <JCHEM_NUMBER_OF_RINGS>
1

>  <JCHEM_PHYSIOLOGICAL_CHARGE>
0

>  <JCHEM_PKA>
12.919754747560857

>  <JCHEM_PKA_STRONGEST_ACIDIC>
12.16230394451481

>  <JCHEM_PKA_STRONGEST_BASIC>
-1.0451961297953756

>  <JCHEM_POLAR_SURFACE_AREA>
168.94

>  <JCHEM_REFRACTIVITY>
244.59789999999998

>  <JCHEM_ROTATABLE_BOND_COUNT>
44

>  <JCHEM_RULE_OF_FIVE>
0

>  <ALOGPS_SOLUBILITY>
3.58e-04 g/l

>  <JCHEM_TRADITIONAL_IUPAC>
(2S)-2-amino-4-[(2-ethanimidamidoethyl)sulfanyl]butanoic acid

>  <JCHEM_VEBER_RULE>
0

>  <DRUGBANK_ID>
DB12232

>  <DRUG_GROUPS>
investigational

>  <GENERIC_NAME>
KRN-7000

>  <SYNONYMS>
1-O-(α-D-galactopyranosyl)-N-hexacosanoylphytosphingosine

$$$$

 OpenBabel05042401512D

 44 46  0  0  1  0  0  0  0  0999 V2000
    8.6645   -3.4276    0.0000 C   0  0  0  0  0  0  0  0  0  0  0  0
    9.2881   -2.8875    0.0000 C   0  0  0  0  0  0  0  0  0  0  0  0
    9.1322   -2.0774    0.0000 C   0  0  0  0  0  0  0  0  0  0  0  0
   10.0677   -3.1575    0.0000 C   0  0  0  0  0  0  0  0  0  0  0  0
   10.2236   -3.9677    0.0000 N   0  0  0  0  0  0  0  0  0  0  0  0
   11.0031   -4.2377    0.0000 C   0  0  0  0  0  0  0  0  0  0  0  0
   11.6268   -3.6976    0.0000 C   0  0  2  0  0  0  0  0  0  0  0  0
   12.4063   -3.9677    0.0000 C   0  0  2  0  0  0  0  0  0  0  0  0
   12.5622   -4.7778    0.0000 C   0  0  0  0  0  0  0  0  0  0  0  0
   11.9386   -5.3179    0.0000 C   0  0  0  0  0  0  0  0  0  0  0  0
   12.0945   -6.1280    0.0000 C   0  0  0  0  0  0  0  0  0  0  0  0
   11.4709   -6.6681    0.0000 C   0  0  0  0  0  0  0  0  0  0  0  0
   10.6913   -6.3981    0.0000 C   0  0  0  0  0  0  0  0  0  0  0  0
   10.5354   -5.5879    0.0000 C   0  0  0  0  0  0  0  0  0  0  0  0
   11.1590   -5.0479    0.0000 C   0  0  0  0  0  0  0  0  0  0  0  0
   13.0300   -3.4276    0.0000 N   0  0  0  0  0  0  0  0  0  0  0  0
   13.8095   -3.6976    0.0000 C   0  0  0  0  0  0  0  0  0  0  0  0
   13.9654   -4.5078    0.0000 O   0  0  0  0  0  0  0  0  0  0  0  0
   14.4332   -3.1575    0.0000 C   0  0  2  0  0  0  0  0  0  0  0  0
   14.2773   -2.3474    0.0000 C   0  0  0  0  0  0  0  0  0  0  0  0
   13.4977   -2.0774    0.0000 C   0  0  0  0  0  0  0  0  0  0  0  0
   12.8741   -2.6175    0.0000 O   0  0  0  0  0  0  0  0  0  0  0  0
   13.3418   -1.2672    0.0000 N   0  0  0  0  0  0  0  0  0  0  0  0
   15.2127   -3.4276    0.0000 N   0  0  0  0  0  0  0  0  0  0  0  0
   15.8364   -2.8875    0.0000 C   0  0  0  0  0  0  0  0  0  0  0  0
   15.6804   -2.0774    0.0000 O   0  0  0  0  0  0  0  0  0  0  0  0
   16.6159   -3.1575    0.0000 C   0  0  0  0  0  0  0  0  0  0  0  0
   17.2396   -2.6175    0.0000 C   0  0  0  0  0  0  0  0  0  0  0  0
   18.0191   -2.8875    0.0000 C   0  0  0  0  0  0  0  0  0  0  0  0
   18.1750   -3.6976    0.0000 C   0  0  0  0  0  0  0  0  0  0  0  0
   18.9546   -3.9677    0.0000 C   0  0  0  0  0  0  0  0  0  0  0  0
   19.1105   -4.7778    0.0000 C   0  0  0  0  0  0  0  0  0  0  0  0
   18.4868   -5.3179    0.0000 C   0  0  0  0  0  0  0  0  0  0  0  0
   17.7073   -5.0479    0.0000 C   0  0  0  0  0  0  0  0  0  0  0  0
   17.5514   -4.2377    0.0000 C   0  0  0  0  0  0  0  0  0  0  0  0
   16.7718   -3.9677    0.0000 N   0  0  0  0  0  0  0  0  0  0  0  0
   11.4709   -2.8875    0.0000 O   0  0  0  0  0  0  0  0  0  0  0  0
    9.5999   -4.5078    0.0000 C   0  0  0  0  0  0  0  0  0  0  0  0
    8.8204   -4.2377    0.0000 O   0  0  0  0  0  0  0  0  0  0  0  0
    9.7559   -5.3179    0.0000 N   0  0  0  0  0  0  0  0  0  0  0  0
    9.1322   -5.8580    0.0000 C   0  0  0  0  0  0  0  0  0  0  0  0
    8.5086   -6.3981    0.0000 C   0  0  0  0  0  0  0  0  0  0  0  0
    8.5921   -5.2343    0.0000 C   0  0  0  0  0  0  0  0  0  0  0  0
    9.6723   -6.4816    0.0000 C   0  0  0  0  0  0  0  0  0  0  0  0
  1  2  1  0  0  0  0
  2  3  1  0  0  0  0
  2  4  1  0  0  0  0
  4  5  1  0  0  0  0
  5  6  1  0  0  0  0
  5 38  1  0  0  0  0
  7  6  1  1  0  0  0
  7  8  1  0  0  0  0
  7 37  1  0  0  0  0
  8  9  1  1  0  0  0
  8 16  1  0  0  0  0
  9 10  1  0  0  0  0
 10 11  2  0  0  0  0
 10 15  1  0  0  0  0
 11 12  1  0  0  0  0
 12 13  2  0  0  0  0
 13 14  1  0  0  0  0
 14 15  2  0  0  0  0
 16 17  1  0  0  0  0
 17 18  2  0  0  0  0
 19 17  1  6  0  0  0
 19 20  1  0  0  0  0
 19 24  1  0  0  0  0
 20 21  1  0  0  0  0
 21 22  2  0  0  0  0
 21 23  1  0  0  0  0
 24 25  1  0  0  0  0
 25 26  2  0  0  0  0
 25 27  1  0  0  0  0
 27 28  2  0  0  0  0
 27 36  1  0  0  0  0
 28 29  1  0  0  0  0
 29 30  2  0  0  0  0
 30 31  1  0  0  0  0
 30 35  1  0  0  0  0
 31 32  2  0  0  0  0
 32 33  1  0  0  0  0
 33 34  2  0  0  0  0
 34 35  1  0  0  0  0
 35 36  2  0  0  0  0
 38 39  2  0  0  0  0
 38 40  1  0  0  0  0
 40 41  1  0  0  0  0
 41 42  1  0  0  0  0
 41 43  1  0  0  0  0
 41 44  1  0  0  0  0
M  END
>  <DATABASE_ID>
DB12178

>  <DATABASE_NAME>
drugbank

>  <SMILES>
CC(C)CN(C[C@@H](O)[C@H](CC1=CC=CC=C1)NC(=O)[C@H](CC(N)=O)NC(=O)C1=CC=C2C=CC=CC2=N1)C(=O)NC(C)(C)C

>  <INCHI_IDENTIFIER>
InChI=1S/C33H44N6O5/c1-21(2)19-39(32(44)38-33(3,4)5)20-28(40)26(17-22-11-7-6-8-12-22)36-31(43)27(18-29(34)41)37-30(42)25-16-15-23-13-9-10-14-24(23)35-25/h6-16,21,26-28,40H,17-20H2,1-5H3,(H2,34,41)(H,36,43)(H,37,42)(H,38,44)/t26-,27-,28+/m0/s1

>  <INCHI_KEY>
ZILOOGIOHVCEKS-HZFUHODCSA-N

>  <FORMULA>
C33H44N6O5

>  <MOLECULAR_WEIGHT>
604.752

>  <EXACT_MASS>
604.337318541

>  <JCHEM_ACCEPTOR_COUNT>
6

>  <JCHEM_ATOM_COUNT>
88

>  <JCHEM_AVERAGE_POLARIZABILITY>
66.34630221985297

>  <JCHEM_BIOAVAILABILITY>
0

>  <JCHEM_DONOR_COUNT>
5

>  <JCHEM_FORMAL_CHARGE>
0

>  <JCHEM_GHOSE_FILTER>
0

>  <JCHEM_IUPAC>
(2S)-N-[(2S,3R)-4-[(tert-butylcarbamoyl)(2-methylpropyl)amino]-3-hydroxy-1-phenylbutan-2-yl]-2-[(quinolin-2-yl)formamido]butanediamide

>  <ALOGPS_LOGP>
2.39

>  <JCHEM_LOGP>
2.4822923020000003

>  <ALOGPS_LOGS>
-5.15

>  <JCHEM_MDDR_LIKE_RULE>
1

>  <JCHEM_NUMBER_OF_RINGS>
3

>  <JCHEM_PHYSIOLOGICAL_CHARGE>
0

>  <JCHEM_PKA>
14.218622531574773

>  <JCHEM_PKA_STRONGEST_ACIDIC>
13.590044772701333

>  <JCHEM_PKA_STRONGEST_BASIC>
0.5929095557533681

>  <JCHEM_POLAR_SURFACE_AREA>
166.75

>  <JCHEM_REFRACTIVITY>
167.15120000000002

>  <JCHEM_ROTATABLE_BOND_COUNT>
14

>  <JCHEM_RULE_OF_FIVE>
0

>  <ALOGPS_SOLUBILITY>
4.27e-03 g/l

>  <JCHEM_TRADITIONAL_IUPAC>
(2S)-N-[(2S,3R)-4-[(tert-butylcarbamoyl)(2-methylpropyl)amino]-3-hydroxy-1-phenylbutan-2-yl]-2-(quinolin-2-ylformamido)succinamide

>  <JCHEM_VEBER_RULE>
0

>  <DRUGBANK_ID>
DB12178

>  <DRUG_GROUPS>
investigational

>  <GENERIC_NAME>
Telinavir

>  <SYNONYMS>
Telinavir

$$$$

 OpenBabel05042401512D

 36 37  0  0  0  0  0  0  0  0999 V2000
    9.2881   11.9625    0.0000 C   0  0  0  0  0  0  0  0  0  0  0  0
   10.0026   10.7250    0.0000 C   0  0  0  0  0  0  0  0  0  0  0  0
    8.5737    8.2500    0.0000 C   0  0  0  0  0  0  0  0  0  0  0  0
    7.1447    5.7750    0.0000 C   0  0  0  0  0  0  0  0  0  0  0  0
    5.7158    3.3000    0.0000 C   0  0  0  0  0  0  0  0  0  0  0  0
    4.2868    0.8250    0.0000 C   0  0  0  0  0  0  0  0  0  0  0  0
    0.7145    1.2375    0.0000 C   0  0  0  0  0  0  0  0  0  0  0  0
    0.7145    2.0625    0.0000 C   0  0  0  0  0  0  0  0  0  0  0  0
    8.5737    9.9000    0.0000 C   0  0  0  0  0  0  0  0  0  0  0  0
    7.1447    7.4250    0.0000 C   0  0  0  0  0  0  0  0  0  0  0  0
    5.7158    4.9500    0.0000 C   0  0  0  0  0  0  0  0  0  0  0  0
    8.5737   10.7250    0.0000 C   0  0  0  0  0  0  0  0  0  0  0  0
    7.8592    9.4875    0.0000 C   0  0  0  0  0  0  0  0  0  0  0  0
    7.1447    8.2500    0.0000 C   0  0  0  0  0  0  0  0  0  0  0  0
    6.4302    7.0125    0.0000 C   0  0  0  0  0  0  0  0  0  0  0  0
    5.7158    5.7750    0.0000 C   0  0  0  0  0  0  0  0  0  0  0  0
    5.0013    4.5375    0.0000 C   0  0  0  0  0  0  0  0  0  0  0  0
    1.4289    0.8250    0.0000 C   0  0  0  0  0  0  0  0  0  0  0  0
    1.4289    2.4750    0.0000 C   0  0  0  0  0  0  0  0  0  0  0  0
    4.2868    3.3000    0.0000 C   0  0  0  0  0  0  0  0  0  0  0  0
    4.2868    2.4750    0.0000 C   0  0  0  0  0  0  0  0  0  0  0  0
    9.2881   11.1375    0.0000 C   0  0  0  0  0  0  0  0  0  0  0  0
    7.8592    8.6625    0.0000 C   0  0  0  0  0  0  0  0  0  0  0  0
    6.4302    6.1875    0.0000 C   0  0  0  0  0  0  0  0  0  0  0  0
    5.0013    3.7125    0.0000 C   0  0  0  0  0  0  0  0  0  0  0  0
    3.5724    1.2375    0.0000 C   0  0  0  0  0  0  0  0  0  0  0  0
    3.5724    2.0625    0.0000 C   0  0  0  0  0  0  0  0  0  0  0  0
    2.1434    1.2375    0.0000 C   0  0  0  0  0  0  0  0  0  0  0  0
    2.1434    2.0625    0.0000 C   0  0  0  0  0  0  0  0  0  0  0  0
    2.8579    0.8250    0.0000 C   0  0  0  0  0  0  0  0  0  0  0  0
    2.8579    2.4750    0.0000 C   0  0  0  0  0  0  0  0  0  0  0  0
    2.8579    0.0000    0.0000 O   0  0  0  0  0  0  0  0  0  0  0  0
    2.8579    3.3000    0.0000 O   0  0  0  0  0  0  0  0  0  0  0  0
    6.4302    8.6625    0.0000 H   0  0  0  0  0  0  0  0  0  0  0  0
    5.0013    6.1875    0.0000 H   0  0  0  0  0  0  0  0  0  0  0  0
    3.5724    3.7125    0.0000 H   0  0  0  0  0  0  0  0  0  0  0  0
  8  7  2  0  0  0  0
 12  9  1  0  0  0  0
 13  9  1  0  0  0  0
 14 10  1  0  0  0  0
 15 10  1  0  0  0  0
 16 11  1  0  0  0  0
 17 11  1  0  0  0  0
 18  7  1  0  0  0  0
 19  8  1  0  0  0  0
 21 20  1  0  0  0  0
 22  1  1  0  0  0  0
 22  2  1  0  0  0  0
 22 12  2  0  0  0  0
 23  3  1  0  0  0  0
 23 13  1  0  0  0  0
 23 14  2  0  0  0  0
 24  4  1  0  0  0  0
 24 15  1  0  0  0  0
 24 16  2  0  0  0  0
 25  5  1  0  0  0  0
 25 17  1  0  0  0  0
 25 20  2  0  0  0  0
 26  6  1  0  0  0  0
 27 21  1  0  0  0  0
 27 26  2  0  0  0  0
 28 18  2  0  0  0  0
 29 19  2  0  0  0  0
 29 28  1  0  0  0  0
 30 26  1  0  0  0  0
 30 28  1  0  0  0  0
 31 27  1  0  0  0  0
 31 29  1  0  0  0  0
 32 30  2  0  0  0  0
 33 31  2  0  0  0  0
 34 14  1  0  0  0  0
 35 16  1  0  0  0  0
 36 20  1  0  0  0  0
M  END
>  <DATABASE_ID>
DB12148

>  <DATABASE_NAME>
drugbank

>  <SMILES>
[H]\C(CC\C(C)=C(/[H])CC\C(C)=C(/[H])CC1=C(C)C(=O)C2=CC=CC=C2C1=O)=C(\C)CCC=C(C)C

>  <INCHI_IDENTIFIER>
InChI=1S/C31H40O2/c1-22(2)12-9-13-23(3)14-10-15-24(4)16-11-17-25(5)20-21-27-26(6)30(32)28-18-7-8-19-29(28)31(27)33/h7-8,12,14,16,18-20H,9-11,13,15,17,21H2,1-6H3/b23-14+,24-16+,25-20+

>  <INCHI_KEY>
DKHGMERMDICWDU-GHDNBGIDSA-N

>  <FORMULA>
C31H40O2

>  <MOLECULAR_WEIGHT>
444.659

>  <EXACT_MASS>
444.302830528

>  <JCHEM_ACCEPTOR_COUNT>
2

>  <JCHEM_ATOM_COUNT>
73

>  <JCHEM_AVERAGE_POLARIZABILITY>
54.92492997785129

>  <JCHEM_BIOAVAILABILITY>
0

>  <JCHEM_DONOR_COUNT>
0

>  <JCHEM_FORMAL_CHARGE>
0

>  <JCHEM_GHOSE_FILTER>
0

>  <JCHEM_IUPAC>
2-methyl-3-[(2E,6E,10E)-3,7,11,15-tetramethylhexadeca-2,6,10,14-tetraen-1-yl]-1,4-dihydronaphthalene-1,4-dione

>  <ALOGPS_LOGP>
7.24

>  <JCHEM_LOGP>
8.479707364333333

>  <ALOGPS_LOGS>
-5.96

>  <JCHEM_MDDR_LIKE_RULE>
0

>  <JCHEM_NUMBER_OF_RINGS>
2

>  <JCHEM_PHYSIOLOGICAL_CHARGE>
0

>  <JCHEM_PKA_STRONGEST_BASIC>
-7.224343414413889

>  <JCHEM_POLAR_SURFACE_AREA>
34.14

>  <JCHEM_REFRACTIVITY>
145.50680000000003

>  <JCHEM_ROTATABLE_BOND_COUNT>
11

>  <JCHEM_RULE_OF_FIVE>
0

>  <ALOGPS_SOLUBILITY>
4.89e-04 g/l

>  <JCHEM_TRADITIONAL_IUPAC>
menatetrenone

>  <JCHEM_VEBER_RULE>
0

>  <DRUGBANK_ID>
DB12148

>  <DRUG_GROUPS>
investigational

>  <GENERIC_NAME>
Menatetrenone

>  <SYNONYMS>
menatetrenona; Menatetrenone

$$$$

 OpenBabel05042401512D

 48 53  0  0  0  0  0  0  0  0999 V2000
   -0.0444    0.6151    0.0000 N   0  0  0  0  0  0  0  0  0  0  0  0
   -0.7589    1.0276    0.0000 C   0  0  0  0  0  0  0  0  0  0  0  0
   -0.7589    1.6463    0.0000 O   0  0  0  0  0  0  0  0  0  0  0  0
   -1.4733    0.6151    0.0000 N   0  0  0  0  0  0  0  0  0  0  0  0
   -1.4733   -0.2099    0.0000 C   0  0  0  0  0  0  0  0  0  0  0  0
   -2.1878   -0.6223    0.0000 C   0  0  0  0  0  0  0  0  0  0  0  0
   -2.1878   -1.4474    0.0000 C   0  0  0  0  0  0  0  0  0  0  0  0
   -2.9023   -1.8599    0.0000 C   0  0  0  0  0  0  0  0  0  0  0  0
   -3.6166   -1.4474    0.0000 C   0  0  0  0  0  0  0  0  0  0  0  0
   -3.6166   -0.6223    0.0000 C   0  0  0  0  0  0  0  0  0  0  0  0
   -2.9023   -0.2099    0.0000 C   0  0  0  0  0  0  0  0  0  0  0  0
   -1.4733   -1.8599    0.0000 S   0  0  0  0  0  0  0  0  0  0  0  0
    0.6701   -0.6223    0.0000 C   0  0  0  0  0  0  0  0  0  0  0  0
   -0.0444   -0.2099    0.0000 C   0  0  0  0  0  0  0  0  0  0  0  0
   -0.7589   -0.6223    0.0000 C   0  0  0  0  0  0  0  0  0  0  0  0
   -0.7589   -1.4474    0.0000 C   0  0  0  0  0  0  0  0  0  0  0  0
   -0.0444   -1.8599    0.0000 C   0  0  0  0  0  0  0  0  0  0  0  0
    0.6701   -1.4474    0.0000 N   0  0  0  0  0  0  0  0  0  0  0  0
    1.9396   -1.0349    0.0000 N   0  0  0  0  0  0  0  0  0  0  0  0
    1.4547   -0.3675    0.0000 N   0  0  0  0  0  0  0  0  0  0  0  0
    1.4547   -1.7023    0.0000 C   0  0  0  0  0  0  0  0  0  0  0  0
    1.7096   -2.4870    0.0000 C   0  0  0  0  0  0  0  0  0  0  0  0
    1.1576   -3.1001    0.0000 C   0  0  0  0  0  0  0  0  0  0  0  0
    1.4125   -3.8847    0.0000 C   0  0  0  0  0  0  0  0  0  0  0  0
    2.2195   -4.0561    0.0000 C   0  0  0  0  0  0  0  0  0  0  0  0
    2.7715   -3.4431    0.0000 C   0  0  0  0  0  0  0  0  0  0  0  0
    2.5166   -2.6585    0.0000 C   0  0  0  0  0  0  0  0  0  0  0  0
    0.3506   -2.9285    0.0000 S   0  0  0  0  0  0  0  0  0  0  0  0
   -0.2014   -3.5416    0.0000 C   0  0  0  0  0  0  0  0  0  0  0  0
   -1.0084   -3.3701    0.0000 C   0  0  0  0  0  0  0  0  0  0  0  0
   -1.5604   -3.9832    0.0000 O   0  0  0  0  0  0  0  0  0  0  0  0
    0.7563    1.8481    0.0000 N   0  0  0  0  0  0  0  0  0  0  0  0
    1.5633    2.0196    0.0000 N   0  0  0  0  0  0  0  0  0  0  0  0
    1.9758    1.3051    0.0000 C   0  0  0  0  0  0  0  0  0  0  0  0
    1.4238    0.6919    0.0000 C   0  0  0  0  0  0  0  0  0  0  0  0
    0.6701    1.0276    0.0000 C   0  0  0  0  0  0  0  0  0  0  0  0
    0.1432    2.4001    0.0000 C   0  0  0  0  0  0  0  0  0  0  0  0
   -0.6414    2.1452    0.0000 C   0  0  0  0  0  0  0  0  0  0  0  0
   -1.2545    2.6972    0.0000 C   0  0  0  0  0  0  0  0  0  0  0  0
   -1.0830    3.5042    0.0000 C   0  0  0  0  0  0  0  0  0  0  0  0
   -0.2983    3.7591    0.0000 C   0  0  0  0  0  0  0  0  0  0  0  0
    0.3147    3.2071    0.0000 C   0  0  0  0  0  0  0  0  0  0  0  0
   -1.6961    4.0561    0.0000 O   0  0  0  0  0  0  0  0  0  0  0  0
   -2.0391    2.4423    0.0000 Cl  0  0  0  0  0  0  0  0  0  0  0  0
    2.7963    1.2189    0.0000 C   0  0  0  0  0  0  0  0  0  0  0  0
    3.6166    1.1327    0.0000 C   0  0  0  0  0  0  0  0  0  0  0  0
    3.1318    0.4652    0.0000 C   0  0  0  0  0  0  0  0  0  0  0  0
    3.2812    1.8863    0.0000 C   0  0  0  0  0  0  0  0  0  0  0  0
  1  2  1  0  0  0  0
  1 36  1  0  0  0  0
  2  3  2  0  0  0  0
  2  4  1  0  0  0  0
  4  5  1  0  0  0  0
  5  6  1  0  0  0  0
  6  7  1  0  0  0  0
  6 11  2  0  0  0  0
  7  8  2  0  0  0  0
  7 12  1  0  0  0  0
  8  9  1  0  0  0  0
  9 10  2  0  0  0  0
 10 11  1  0  0  0  0
 12 16  1  0  0  0  0
 13 14  1  0  0  0  0
 13 18  1  0  0  0  0
 13 20  2  0  0  0  0
 14 15  2  0  0  0  0
 15 16  1  0  0  0  0
 16 17  2  0  0  0  0
 17 18  1  0  0  0  0
 18 21  1  0  0  0  0
 19 20  1  0  0  0  0
 19 21  2  0  0  0  0
 21 22  1  0  0  0  0
 22 23  1  0  0  0  0
 22 27  2  0  0  0  0
 23 24  2  0  0  0  0
 23 28  1  0  0  0  0
 24 25  1  0  0  0  0
 25 26  2  0  0  0  0
 26 27  1  0  0  0  0
 28 29  1  0  0  0  0
 29 30  1  0  0  0  0
 30 31  1  0  0  0  0
 32 33  1  0  0  0  0
 32 36  1  0  0  0  0
 32 37  1  0  0  0  0
 33 34  2  0  0  0  0
 34 35  1  0  0  0  0
 34 45  1  0  0  0  0
 35 36  2  0  0  0  0
 37 38  1  0  0  0  0
 37 42  2  0  0  0  0
 38 39  2  0  0  0  0
 39 40  1  0  0  0  0
 39 44  1  0  0  0  0
 40 41  2  0  0  0  0
 40 43  1  0  0  0  0
 41 42  1  0  0  0  0
 45 46  1  0  0  0  0
 45 48  1  0  0  0  0
 45 47  1  0  0  0  0
M  END
>  <DATABASE_ID>
DB12138

>  <DATABASE_NAME>
drugbank

>  <SMILES>
CC(C)(C)C1=NN(C(NC(=O)NCC2=CC=CC=C2SC2=CN3C(C=C2)=NN=C3C2=CC=CC=C2SCCO)=C1)C1=CC=C(O)C(Cl)=C1

>  <INCHI_IDENTIFIER>
InChI=1S/C35H34ClN7O3S2/c1-35(2,3)30-19-32(43(41-30)23-12-14-27(45)26(36)18-23)38-34(46)37-20-22-8-4-6-10-28(22)48-24-13-15-31-39-40-33(42(31)21-24)25-9-5-7-11-29(25)47-17-16-44/h4-15,18-19,21,44-45H,16-17,20H2,1-3H3,(H2,37,38,46)

>  <INCHI_KEY>
VGEXRDWWPSGZDH-UHFFFAOYSA-N

>  <FORMULA>
C35H34ClN7O3S2

>  <MOLECULAR_WEIGHT>
700.273

>  <EXACT_MASS>
699.185307076

>  <JCHEM_ACCEPTOR_COUNT>
6

>  <JCHEM_ATOM_COUNT>
82

>  <JCHEM_AVERAGE_NEUTRAL_MICROSPECIES_CHARGE>
-0.03360666433279188

>  <JCHEM_AVERAGE_POLARIZABILITY>
72.52542593908774

>  <JCHEM_BIOAVAILABILITY>
0

>  <JCHEM_DONOR_COUNT>
4

>  <JCHEM_FORMAL_CHARGE>
0

>  <JCHEM_GHOSE_FILTER>
0

>  <JCHEM_IUPAC>
3-[3-tert-butyl-1-(3-chloro-4-hydroxyphenyl)-1H-pyrazol-5-yl]-1-({2-[(3-{2-[(2-hydroxyethyl)sulfanyl]phenyl}-[1,2,4]triazolo[4,3-a]pyridin-6-yl)sulfanyl]phenyl}methyl)urea

>  <JCHEM_LOGP>
6.949856661666667

>  <JCHEM_MDDR_LIKE_RULE>
1

>  <JCHEM_NEUTRAL_CHARGE>
0

>  <JCHEM_NUMBER_OF_RINGS>
6

>  <JCHEM_PHYSIOLOGICAL_CHARGE>
0

>  <JCHEM_PKA>
12.590850857108352

>  <JCHEM_PKA_STRONGEST_ACIDIC>
8.458535372123208

>  <JCHEM_PKA_STRONGEST_BASIC>
2.138108882888707

>  <JCHEM_POLAR_SURFACE_AREA>
129.60000000000002

>  <JCHEM_REFRACTIVITY>
208.9363

>  <JCHEM_ROTATABLE_BOND_COUNT>
11

>  <JCHEM_RULE_OF_FIVE>
0

>  <JCHEM_TRADITIONAL_IUPAC>
(2R)-2-{[(2S)-1-[(2S)-2-[(2S,3S)-2-[(2S)-2-[(2S)-2-[(2S)-5-carbamimidamido-2-[2-(methylamino)acetamido]pentanamido]-3-methylbutanamido]-3-(4-hydroxyphenyl)propanamido]-3-methylpentanamido]-3-(3H-imidazol-4-yl)propanoyl]pyrrolidin-2-yl]formamido}propanoic acid

>  <JCHEM_VEBER_RULE>
0

>  <DRUGBANK_ID>
DB12138

>  <DRUG_GROUPS>
investigational

>  <GENERIC_NAME>
PF-03715455

$$$$

 OpenBabel05042401512D

 38 41  0  0  0  0  0  0  0  0999 V2000
   -1.7309    6.9020    0.0000 C   0  0  0  0  0  0  0  0  0  0  0  0
   -1.0164    6.4895    0.0000 O   0  0  0  0  0  0  0  0  0  0  0  0
   -0.3020    6.9020    0.0000 C   0  0  0  0  0  0  0  0  0  0  0  0
    0.4125    6.4895    0.0000 C   0  0  0  0  0  0  0  0  0  0  0  0
    1.1270    6.9020    0.0000 C   0  0  0  0  0  0  0  0  0  0  0  0
    1.1270    7.7270    0.0000 C   0  0  0  0  0  0  0  0  0  0  0  0
    0.4125    8.1395    0.0000 C   0  0  0  0  0  0  0  0  0  0  0  0
   -0.3020    7.7270    0.0000 C   0  0  0  0  0  0  0  0  0  0  0  0
   -1.0164    8.1395    0.0000 C   0  0  0  0  0  0  0  0  0  0  0  0
   -1.7309    7.7270    0.0000 C   0  0  0  0  0  0  0  0  0  0  0  0
    1.8414    8.1395    0.0000 C   0  0  0  0  0  0  0  0  0  0  0  0
    2.5559    7.7270    0.0000 O   0  0  0  0  0  0  0  0  0  0  0  0
    1.8414    8.9645    0.0000 N   0  0  0  0  0  0  0  0  0  0  0  0
    2.5559    9.3770    0.0000 C   0  0  0  0  0  0  0  0  0  0  0  0
    2.5559   10.2020    0.0000 C   0  0  0  0  0  0  0  0  0  0  0  0
    3.2704   10.6145    0.0000 C   0  0  0  0  0  0  0  0  0  0  0  0
    3.9849   10.2020    0.0000 C   0  0  0  0  0  0  0  0  0  0  0  0
    3.9849    9.3770    0.0000 C   0  0  0  0  0  0  0  0  0  0  0  0
    3.2704    8.9645    0.0000 C   0  0  0  0  0  0  0  0  0  0  0  0
    4.6993   10.6145    0.0000 C   0  0  0  0  0  0  0  0  0  0  0  0
    5.4138   10.2020    0.0000 N   0  0  0  0  0  0  0  0  0  0  0  0
    4.6993   11.4395    0.0000 N   0  0  0  0  0  0  0  0  0  0  0  0
    1.8414    6.4895    0.0000 C   0  0  0  0  0  0  0  0  0  0  0  0
    2.5559    6.9020    0.0000 C   0  0  0  0  0  0  0  0  0  0  0  0
    3.2704    6.4895    0.0000 C   0  0  0  0  0  0  0  0  0  0  0  0
    3.2704    5.6645    0.0000 C   0  0  0  0  0  0  0  0  0  0  0  0
    2.5559    5.2520    0.0000 N   0  0  0  0  0  0  0  0  0  0  0  0
    1.8414    5.6645    0.0000 C   0  0  0  0  0  0  0  0  0  0  0  0
    1.1270    5.2520    0.0000 C   0  0  0  0  0  0  0  0  0  0  0  0
    0.4125    5.6645    0.0000 O   0  0  0  0  0  0  0  0  0  0  0  0
    1.1270    4.4270    0.0000 O   0  0  0  0  0  0  0  0  0  0  0  0
    3.9849    5.2520    0.0000 C   0  0  0  0  0  0  0  0  0  0  0  0
    4.6993    5.6645    0.0000 O   0  0  0  0  0  0  0  0  0  0  0  0
    3.9849    4.4270    0.0000 N   0  0  0  0  0  0  0  0  0  0  0  0
    3.2704    4.0145    0.0000 C   0  0  0  0  0  0  0  0  0  0  0  0
    3.2704    3.1895    0.0000 C   0  0  0  0  0  0  0  0  0  0  0  0
    3.6829    2.4750    0.0000 C   0  0  0  0  0  0  0  0  0  0  0  0
    2.8579    2.4750    0.0000 C   0  0  0  0  0  0  0  0  0  0  0  0
  1  2  1  0  0  0  0
  2  3  1  0  0  0  0
  3  4  2  0  0  0  0
  3  8  1  0  0  0  0
  4  5  1  0  0  0  0
  5  6  2  0  0  0  0
  5 23  1  0  0  0  0
  6  7  1  0  0  0  0
  6 11  1  0  0  0  0
  7  8  2  0  0  0  0
  8  9  1  0  0  0  0
  9 10  2  0  0  0  0
 11 12  2  0  0  0  0
 11 13  1  0  0  0  0
 13 14  1  0  0  0  0
 14 15  2  0  0  0  0
 14 19  1  0  0  0  0
 15 16  1  0  0  0  0
 16 17  2  0  0  0  0
 17 18  1  0  0  0  0
 17 20  1  0  0  0  0
 18 19  2  0  0  0  0
 20 21  2  0  0  0  0
 20 22  1  0  0  0  0
 23 24  2  0  0  0  0
 23 28  1  0  0  0  0
 24 25  1  0  0  0  0
 25 26  2  0  0  0  0
 26 27  1  0  0  0  0
 26 32  1  0  0  0  0
 27 28  2  0  0  0  0
 28 29  1  0  0  0  0
 29 30  2  0  0  0  0
 29 31  1  0  0  0  0
 32 33  2  0  0  0  0
 32 34  1  0  0  0  0
 34 35  1  0  0  0  0
 35 36  1  0  0  0  0
 36 37  1  0  0  0  0
 36 38  1  0  0  0  0
 37 38  1  0  0  0  0
M  END
>  <DATABASE_ID>
DB12120

>  <DATABASE_NAME>
drugbank

>  <SMILES>
COC1=CC(=C(C=C1C=C)C(=O)NC1=CC=C(C=C1)C(N)=N)C1=CC=C(N=C1C(O)=O)C(=O)NCC1CC1

>  <INCHI_IDENTIFIER>
InChI=1S/C28H27N5O5/c1-3-16-12-21(26(34)32-18-8-6-17(7-9-18)25(29)30)20(13-23(16)38-2)19-10-11-22(33-24(19)28(36)37)27(35)31-14-15-4-5-15/h3,6-13,15H,1,4-5,14H2,2H3,(H3,29,30)(H,31,35)(H,32,34)(H,36,37)

>  <INCHI_KEY>
TUWMKPVJGGWGNL-UHFFFAOYSA-N

>  <FORMULA>
C28H27N5O5

>  <MOLECULAR_WEIGHT>
513.554

>  <EXACT_MASS>
513.201218989

>  <JCHEM_ACCEPTOR_COUNT>
8

>  <JCHEM_ATOM_COUNT>
65

>  <JCHEM_AVERAGE_POLARIZABILITY>
54.856858253661

>  <JCHEM_BIOAVAILABILITY>
1

>  <JCHEM_DONOR_COUNT>
5

>  <JCHEM_FORMAL_CHARGE>
0

>  <JCHEM_GHOSE_FILTER>
0

>  <JCHEM_IUPAC>
3-{2-[(4-carbamimidoylphenyl)carbamoyl]-4-ethenyl-5-methoxyphenyl}-6-[(cyclopropylmethyl)carbamoyl]pyridine-2-carboxylic acid

>  <ALOGPS_LOGP>
2.58

>  <JCHEM_LOGP>
1.6332644886793484

>  <ALOGPS_LOGS>
-4.87

>  <JCHEM_MDDR_LIKE_RULE>
1

>  <JCHEM_NUMBER_OF_RINGS>
4

>  <JCHEM_PHYSIOLOGICAL_CHARGE>
0

>  <JCHEM_PKA>
13.200137809405096

>  <JCHEM_PKA_STRONGEST_ACIDIC>
0.5492109406272894

>  <JCHEM_PKA_STRONGEST_BASIC>
11.488957253727587

>  <JCHEM_POLAR_SURFACE_AREA>
167.48999999999998

>  <JCHEM_REFRACTIVITY>
154.8221

>  <JCHEM_ROTATABLE_BOND_COUNT>
10

>  <JCHEM_RULE_OF_FIVE>
0

>  <ALOGPS_SOLUBILITY>
6.87e-03 g/l

>  <JCHEM_TRADITIONAL_IUPAC>
3-{2-[(4-carbamimidoylphenyl)carbamoyl]-4-ethenyl-5-methoxyphenyl}-6-(cyclopropylmethylcarbamoyl)pyridine-2-carboxylic acid

>  <JCHEM_VEBER_RULE>
0

>  <DRUGBANK_ID>
DB12120

>  <DRUG_GROUPS>
investigational

>  <GENERIC_NAME>
Avoralstat

>  <SYNONYMS>
3-(2-((4-Carbamimidoylphenyl)carbamoyl)-4-ethenyl-5-methoxyphenyl)-6-((cyclopropylmethyl)carbamoyl)pyridine-2-carboxylic acid; 3-[2-(4-carbamimidoyl-phenylcarbamoyl)-5-methoxy-4-vinyl-phenyl]-6-(cyclopropylmethyl-carbamoyl)-pyridine-2-carboxylic acid; 3-[2-[(4-carbamimidoylphenyl)carbamoyl]-4-ethenyl-5-methoxyphenyl]-6-(cyclopropylmethylcarbamoyl)pyridine-2-carboxylic acid; Avoralstat; BCX-4161; BCX4161

$$$$

 OpenBabel05042401512D

 32 31  0  0  0  0  0  0  0  0999 V2000
   -2.2243    5.8855    0.0000 C   0  0  0  0  0  0  0  0  0  0  0  0
   -0.7954    5.8855    0.0000 C   0  0  0  0  0  0  0  0  0  0  0  0
    9.9217   -0.3020    0.0000 C   0  0  0  0  0  0  0  0  0  0  0  0
    9.2072   -1.5395    0.0000 C   0  0  0  0  0  0  0  0  0  0  0  0
    0.6336    3.4105    0.0000 C   0  0  0  0  0  0  0  0  0  0  0  0
    2.0625    0.9355    0.0000 C   0  0  0  0  0  0  0  0  0  0  0  0
    6.3493   -1.5395    0.0000 C   0  0  0  0  0  0  0  0  0  0  0  0
   -0.7954    4.2355    0.0000 C   0  0  0  0  0  0  0  0  0  0  0  0
    7.7783   -0.7145    0.0000 C   0  0  0  0  0  0  0  0  0  0  0  0
    0.6336    1.7605    0.0000 C   0  0  0  0  0  0  0  0  0  0  0  0
    2.0625   -0.7145    0.0000 C   0  0  0  0  0  0  0  0  0  0  0  0
   -1.5099    4.6480    0.0000 C   0  0  0  0  0  0  0  0  0  0  0  0
    8.4927   -0.3020    0.0000 C   0  0  0  0  0  0  0  0  0  0  0  0
   -0.7954    3.4105    0.0000 C   0  0  0  0  0  0  0  0  0  0  0  0
    7.0638   -0.3020    0.0000 C   0  0  0  0  0  0  0  0  0  0  0  0
   -0.0809    2.1730    0.0000 C   0  0  0  0  0  0  0  0  0  0  0  0
    0.6336    0.9355    0.0000 C   0  0  0  0  0  0  0  0  0  0  0  0
    1.3480   -0.3020    0.0000 C   0  0  0  0  0  0  0  0  0  0  0  0
    2.7770   -0.3020    0.0000 C   0  0  0  0  0  0  0  0  0  0  0  0
    5.6349   -0.3020    0.0000 C   0  0  0  0  0  0  0  0  0  0  0  0
    4.9204   -0.7145    0.0000 C   0  0  0  0  0  0  0  0  0  0  0  0
   -1.5099    5.4730    0.0000 C   0  0  0  0  0  0  0  0  0  0  0  0
    9.2072   -0.7145    0.0000 C   0  0  0  0  0  0  0  0  0  0  0  0
   -0.0809    2.9980    0.0000 C   0  0  0  0  0  0  0  0  0  0  0  0
    1.3480    0.5230    0.0000 C   0  0  0  0  0  0  0  0  0  0  0  0
    6.3493   -0.7145    0.0000 C   0  0  0  0  0  0  0  0  0  0  0  0
    3.4914   -0.7145    0.0000 C   0  0  0  0  0  0  0  0  0  0  0  0
    3.4914   -1.5395    0.0000 O   0  0  0  0  0  0  0  0  0  0  0  0
    4.2059   -0.3020    0.0000 O   0  0  0  0  0  0  0  0  0  0  0  0
   -0.7954    1.7605    0.0000 H   0  0  0  0  0  0  0  0  0  0  0  0
    0.6336   -0.7145    0.0000 H   0  0  0  0  0  0  0  0  0  0  0  0
    5.6349    0.5230    0.0000 H   0  0  0  0  0  0  0  0  0  0  0  0
 12  8  1  0  0  0  0
 13  9  1  0  0  0  0
 14  8  1  0  0  0  0
 15  9  1  0  0  0  0
 16 10  1  0  0  0  0
 17 10  1  0  0  0  0
 18 11  1  0  0  0  0
 19 11  1  0  0  0  0
 21 20  1  0  0  0  0
 22  1  1  0  0  0  0
 22  2  1  0  0  0  0
 22 12  2  0  0  0  0
 23  3  1  0  0  0  0
 23  4  1  0  0  0  0
 23 13  2  0  0  0  0
 24  5  1  0  0  0  0
 24 14  1  0  0  0  0
 24 16  2  0  0  0  0
 25  6  1  0  0  0  0
 25 17  1  0  0  0  0
 25 18  2  0  0  0  0
 26  7  1  0  0  0  0
 26 15  1  0  0  0  0
 26 20  2  0  0  0  0
 27 19  1  0  0  0  0
 28 27  2  0  0  0  0
 29 21  1  0  0  0  0
 29 27  1  0  0  0  0
 30 16  1  0  0  0  0
 31 18  1  0  0  0  0
 32 20  1  0  0  0  0
M  END
>  <DATABASE_ID>
DB12079

>  <DATABASE_NAME>
drugbank

>  <SMILES>
[H]\C(CC\C(C)=C(/[H])CCC(=O)OC\C([H])=C(/C)CCC=C(C)C)=C(\C)CCC=C(C)C

>  <INCHI_IDENTIFIER>
InChI=1S/C27H44O2/c1-22(2)12-8-14-24(5)16-10-17-25(6)18-11-19-27(28)29-21-20-26(7)15-9-13-23(3)4/h12-13,16,18,20H,8-11,14-15,17,19,21H2,1-7H3/b24-16+,25-18+,26-20+

>  <INCHI_KEY>
ZPACYDRSPFRDHO-ROBAGEODSA-N

>  <FORMULA>
C27H44O2

>  <MOLECULAR_WEIGHT>
400.647

>  <EXACT_MASS>
400.334130657

>  <JCHEM_ACCEPTOR_COUNT>
1

>  <JCHEM_ATOM_COUNT>
73

>  <JCHEM_AVERAGE_POLARIZABILITY>
51.46562729122815

>  <JCHEM_BIOAVAILABILITY>
0

>  <JCHEM_DONOR_COUNT>
0

>  <JCHEM_FORMAL_CHARGE>
0

>  <JCHEM_GHOSE_FILTER>
0

>  <JCHEM_IUPAC>
(2E)-3,7-dimethylocta-2,6-dien-1-yl (4E,8E)-5,9,13-trimethyltetradeca-4,8,12-trienoate

>  <ALOGPS_LOGP>
7.36

>  <JCHEM_LOGP>
8.178618713333332

>  <ALOGPS_LOGS>
-5.59

>  <JCHEM_MDDR_LIKE_RULE>
0

>  <JCHEM_NUMBER_OF_RINGS>
0

>  <JCHEM_PHYSIOLOGICAL_CHARGE>
0

>  <JCHEM_PKA_STRONGEST_BASIC>
-7.046777120623486

>  <JCHEM_POLAR_SURFACE_AREA>
26.3

>  <JCHEM_REFRACTIVITY>
131.7673

>  <JCHEM_ROTATABLE_BOND_COUNT>
15

>  <JCHEM_RULE_OF_FIVE>
0

>  <ALOGPS_SOLUBILITY>
1.02e-03 g/l

>  <JCHEM_TRADITIONAL_IUPAC>
gefarnate

>  <JCHEM_VEBER_RULE>
0

>  <DRUGBANK_ID>
DB12079

>  <DRUG_GROUPS>
investigational

>  <GENERIC_NAME>
Gefarnate

>  <SYNONYMS>
Gefarnate

$$$$

 OpenBabel05042401512D

 46 51  0  0  1  0  0  0  0  0999 V2000
    4.0668    2.3479    0.0000 C   0  0  0  0  0  0  0  0  0  0  0  0
    3.3523    1.9354    0.0000 C   0  0  0  0  0  0  0  0  0  0  0  0
    3.3523    1.1104    0.0000 C   0  0  0  0  0  0  0  0  0  0  0  0
    2.6378    0.6979    0.0000 C   0  0  0  0  0  0  0  0  0  0  0  0
    1.9233    1.1104    0.0000 C   0  0  0  0  0  0  0  0  0  0  0  0
    1.1387    0.8555    0.0000 C   0  0  0  0  0  0  0  0  0  0  0  0
    0.6538    1.5229    0.0000 C   0  0  0  0  0  0  0  0  0  0  0  0
    1.1387    2.1904    0.0000 S   0  0  0  0  0  0  0  0  0  0  0  0
    1.9233    1.9354    0.0000 C   0  0  0  0  0  0  0  0  0  0  0  0
    2.6378    2.3479    0.0000 C   0  0  0  0  0  0  0  0  0  0  0  0
   -0.1712    1.5229    0.0000 C   0  0  0  0  0  0  0  0  0  0  0  0
   -0.5837    2.2374    0.0000 O   0  0  0  0  0  0  0  0  0  0  0  0
   -0.5837    0.8085    0.0000 N   0  0  0  0  0  0  0  0  0  0  0  0
   -1.4087    0.8085    0.0000 C   0  0  0  0  0  0  0  0  0  0  0  0
   -2.2157    0.6369    0.0000 C   0  0  0  0  0  0  0  0  0  0  0  0
   -2.6282    1.3514    0.0000 C   0  0  0  0  0  0  0  0  0  0  0  0
   -2.0761    1.9645    0.0000 C   0  0  0  0  0  0  0  0  0  0  0  0
   -1.3225    1.6290    0.0000 C   0  0  0  0  0  0  0  0  0  0  0  0
   -1.3225   -0.0120    0.0000 C   0  0  0  0  0  0  0  0  0  0  0  0
   -1.9899   -0.4969    0.0000 O   0  0  0  0  0  0  0  0  0  0  0  0
   -0.5688   -0.3476    0.0000 N   0  0  0  0  0  0  0  0  0  0  0  0
   -0.4826   -1.1680    0.0000 C   0  0  2  0  0  0  0  0  0  0  0  0
   -1.1500   -1.6530    0.0000 C   0  0  0  0  0  0  0  0  0  0  0  0
   -1.0638   -2.4735    0.0000 C   0  0  0  0  0  0  0  0  0  0  0  0
   -0.3101   -2.8090    0.0000 C   0  0  0  0  0  0  0  0  0  0  0  0
   -0.2238   -3.6295    0.0000 C   0  0  0  0  0  0  0  0  0  0  0  0
   -0.8913   -4.1144    0.0000 C   0  0  0  0  0  0  0  0  0  0  0  0
   -1.6450   -3.7789    0.0000 C   0  0  0  0  0  0  0  0  0  0  0  0
   -1.7312   -2.9584    0.0000 C   0  0  0  0  0  0  0  0  0  0  0  0
    0.2711   -1.5036    0.0000 C   0  0  0  0  0  0  0  0  0  0  0  0
    0.9386   -1.0187    0.0000 O   0  0  0  0  0  0  0  0  0  0  0  0
    0.3574   -2.3241    0.0000 N   0  0  0  0  0  0  0  0  0  0  0  0
    1.1110   -2.6596    0.0000 C   0  0  0  0  0  0  0  0  0  0  0  0
    1.1973   -3.4801    0.0000 C   0  0  0  0  0  0  0  0  0  0  0  0
    1.9509   -3.8157    0.0000 C   0  0  0  0  0  0  0  0  0  0  0  0
    2.0372   -4.6362    0.0000 C   0  0  0  0  0  0  0  0  0  0  0  0
    1.3697   -5.1211    0.0000 N   0  0  0  0  0  0  0  0  0  0  0  0
    0.6161   -4.7855    0.0000 C   0  0  0  0  0  0  0  0  0  0  0  0
    0.5298   -3.9650    0.0000 C   0  0  0  0  0  0  0  0  0  0  0  0
    1.4560   -5.9416    0.0000 C   0  0  0  0  0  0  0  0  0  0  0  0
    2.2097   -6.2771    0.0000 C   0  0  0  0  0  0  0  0  0  0  0  0
    2.8771   -5.7922    0.0000 C   0  0  0  0  0  0  0  0  0  0  0  0
    3.6308   -6.1278    0.0000 C   0  0  0  0  0  0  0  0  0  0  0  0
    3.7170   -6.9482    0.0000 O   0  0  0  0  0  0  0  0  0  0  0  0
    3.0496   -7.4332    0.0000 C   0  0  0  0  0  0  0  0  0  0  0  0
    2.2959   -7.0976    0.0000 C   0  0  0  0  0  0  0  0  0  0  0  0
  1  2  1  0  0  0  0
  2  3  2  0  0  0  0
  2 10  1  0  0  0  0
  3  4  1  0  0  0  0
  4  5  2  0  0  0  0
  5  6  1  0  0  0  0
  5  9  1  0  0  0  0
  6  7  2  0  0  0  0
  7  8  1  0  0  0  0
  7 11  1  0  0  0  0
  8  9  1  0  0  0  0
  9 10  2  0  0  0  0
 11 12  2  0  0  0  0
 11 13  1  0  0  0  0
 13 14  1  0  0  0  0
 14 15  1  0  0  0  0
 14 18  1  0  0  0  0
 14 19  1  0  0  0  0
 15 16  1  0  0  0  0
 16 17  1  0  0  0  0
 17 18  1  0  0  0  0
 19 20  2  0  0  0  0
 19 21  1  0  0  0  0
 22 21  1  1  0  0  0
 22 23  1  0  0  0  0
 22 30  1  0  0  0  0
 23 24  1  0  0  0  0
 24 25  2  0  0  0  0
 24 29  1  0  0  0  0
 25 26  1  0  0  0  0
 26 27  2  0  0  0  0
 27 28  1  0  0  0  0
 28 29  2  0  0  0  0
 30 31  2  0  0  0  0
 30 32  1  0  0  0  0
 32 33  1  0  0  0  0
 33 34  1  0  0  0  0
 34 35  1  0  0  0  0
 34 39  1  0  0  0  0
 35 36  1  0  0  0  0
 36 37  1  0  0  0  0
 37 38  1  0  0  0  0
 37 40  1  0  0  0  0
 38 39  1  0  0  0  0
 40 41  1  0  0  0  0
 41 42  1  0  0  0  0
 41 46  1  0  0  0  0
 42 43  1  0  0  0  0
 43 44  1  0  0  0  0
 44 45  1  0  0  0  0
 45 46  1  0  0  0  0
M  END
>  <DATABASE_ID>
DB12042

>  <DATABASE_NAME>
drugbank

>  <SMILES>
CC1=CC=C2C=C(SC2=C1)C(=O)NC1(CCCC1)C(=O)N[C@H](CC1=CC=CC=C1)C(=O)NCC1CCN(CC2CCOCC2)CC1

>  <INCHI_IDENTIFIER>
InChI=1S/C37H48N4O4S/c1-26-9-10-30-23-33(46-32(30)21-26)35(43)40-37(15-5-6-16-37)36(44)39-31(22-27-7-3-2-4-8-27)34(42)38-24-28-11-17-41(18-12-28)25-29-13-19-45-20-14-29/h2-4,7-10,21,23,28-29,31H,5-6,11-20,22,24-25H2,1H3,(H,38,42)(H,39,44)(H,40,43)/t31-/m1/s1

>  <INCHI_KEY>
YQYSVMKCMIUCHY-WJOKGBTCSA-N

>  <FORMULA>
C37H48N4O4S

>  <MOLECULAR_WEIGHT>
644.88

>  <EXACT_MASS>
644.339627216

>  <JCHEM_ACCEPTOR_COUNT>
5

>  <JCHEM_ATOM_COUNT>
94

>  <JCHEM_AVERAGE_POLARIZABILITY>
72.96023761114385

>  <JCHEM_BIOAVAILABILITY>
0

>  <JCHEM_DONOR_COUNT>
3

>  <JCHEM_FORMAL_CHARGE>
0

>  <JCHEM_GHOSE_FILTER>
0

>  <JCHEM_IUPAC>
6-methyl-N-(1-{[(1R)-1-[({1-[(oxan-4-yl)methyl]piperidin-4-yl}methyl)carbamoyl]-2-phenylethyl]carbamoyl}cyclopentyl)-1-benzothiophene-2-carboxamide

>  <ALOGPS_LOGP>
4.97

>  <JCHEM_LOGP>
5.076014648666667

>  <ALOGPS_LOGS>
-6.31

>  <JCHEM_MDDR_LIKE_RULE>
1

>  <JCHEM_NUMBER_OF_RINGS>
6

>  <JCHEM_PHYSIOLOGICAL_CHARGE>
1

>  <JCHEM_PKA>
14.697483603914751

>  <JCHEM_PKA_STRONGEST_ACIDIC>
12.37386308982633

>  <JCHEM_PKA_STRONGEST_BASIC>
10.0339974822379

>  <JCHEM_POLAR_SURFACE_AREA>
99.77000000000001

>  <JCHEM_REFRACTIVITY>
182.93399999999997

>  <JCHEM_ROTATABLE_BOND_COUNT>
11

>  <JCHEM_RULE_OF_FIVE>
0

>  <ALOGPS_SOLUBILITY>
3.14e-04 g/l

>  <JCHEM_TRADITIONAL_IUPAC>
6-methyl-N-(1-{[(1R)-1-({[1-(oxan-4-ylmethyl)piperidin-4-yl]methyl}carbamoyl)-2-phenylethyl]carbamoyl}cyclopentyl)-1-benzothiophene-2-carboxamide

>  <JCHEM_VEBER_RULE>
0

>  <DRUGBANK_ID>
DB12042

>  <DRUG_GROUPS>
investigational

>  <GENERIC_NAME>
Ibodutant

>  <SYNONYMS>
Ibodutant

$$$$

 OpenBabel05042401512D

 30 32  0  0  1  0  0  0  0  0999 V2000
    0.3875    1.0924    0.0000 C   0  0  0  0  0  0  0  0  0  0  0  0
    0.3875    0.2674    0.0000 C   0  0  0  0  0  0  0  0  0  0  0  0
    1.0549   -0.2174    0.0000 C   0  0  0  0  0  0  0  0  0  0  0  0
    0.8000   -1.0020    0.0000 S   0  0  0  0  0  0  0  0  0  0  0  0
   -0.0249   -1.0020    0.0000 C   0  0  0  0  0  0  0  0  0  0  0  0
   -0.2799   -0.2174    0.0000 N   0  0  0  0  0  0  0  0  0  0  0  0
   -0.5099   -1.6695    0.0000 N   0  0  0  0  0  0  0  0  0  0  0  0
   -1.3303   -1.5832    0.0000 C   0  0  0  0  0  0  0  0  0  0  0  0
   -1.6659   -0.8296    0.0000 O   0  0  0  0  0  0  0  0  0  0  0  0
   -1.8153   -2.2507    0.0000 N   0  0  0  0  0  0  0  0  0  0  0  0
   -1.5603   -3.0353    0.0000 C   0  0  0  0  0  0  0  0  0  0  0  0
   -2.2278   -3.5202    0.0000 C   0  0  0  0  0  0  0  0  0  0  0  0
   -2.8952   -3.0353    0.0000 C   0  0  0  0  0  0  0  0  0  0  0  0
   -2.6403   -2.2507    0.0000 C   0  0  1  0  0  0  0  0  0  0  0  0
   -3.1252   -1.5832    0.0000 C   0  0  0  0  0  0  0  0  0  0  0  0
   -3.9457   -1.6695    0.0000 O   0  0  0  0  0  0  0  0  0  0  0  0
   -2.7896   -0.8296    0.0000 N   0  0  0  0  0  0  0  0  0  0  0  0
    1.8395    0.0374    0.0000 C   0  0  0  0  0  0  0  0  0  0  0  0
    2.0111    0.8444    0.0000 C   0  0  0  0  0  0  0  0  0  0  0  0
    2.7957    1.0993    0.0000 C   0  0  0  0  0  0  0  0  0  0  0  0
    3.4088    0.5473    0.0000 N   0  0  0  0  0  0  0  0  0  0  0  0
    3.2372   -0.2596    0.0000 C   0  0  0  0  0  0  0  0  0  0  0  0
    2.4526   -0.5145    0.0000 C   0  0  0  0  0  0  0  0  0  0  0  0
    2.9672    1.9063    0.0000 C   0  0  0  0  0  0  0  0  0  0  0  0
    3.7742    1.7348    0.0000 C   0  0  0  0  0  0  0  0  0  0  0  0
    2.1602    2.0778    0.0000 C   0  0  0  0  0  0  0  0  0  0  0  0
    3.1387    2.7133    0.0000 C   0  0  0  0  0  0  0  0  0  0  0  0
    3.3103    3.5202    0.0000 F   0  0  0  0  0  0  0  0  0  0  0  0
    3.9457    2.5417    0.0000 F   0  0  0  0  0  0  0  0  0  0  0  0
    2.3318    2.8848    0.0000 F   0  0  0  0  0  0  0  0  0  0  0  0
  1  2  1  0  0  0  0
  2  3  2  0  0  0  0
  3  4  1  0  0  0  0
  3 18  1  0  0  0  0
  4  5  1  0  0  0  0
  5  6  2  0  0  0  0
  5  7  1  0  0  0  0
  6  2  1  0  0  0  0
  7  8  1  0  0  0  0
  8  9  2  0  0  0  0
  8 10  1  0  0  0  0
 10 11  1  0  0  0  0
 11 12  1  0  0  0  0
 12 13  1  0  0  0  0
 13 14  1  0  0  0  0
 14 10  1  0  0  0  0
 14 15  1  1  0  0  0
 15 16  2  0  0  0  0
 15 17  1  0  0  0  0
 18 19  2  0  0  0  0
 19 20  1  0  0  0  0
 20 21  2  0  0  0  0
 20 24  1  0  0  0  0
 21 22  1  0  0  0  0
 22 23  2  0  0  0  0
 23 18  1  0  0  0  0
 24 25  1  0  0  0  0
 24 26  1  0  0  0  0
 24 27  1  0  0  0  0
 27 28  1  0  0  0  0
 27 29  1  0  0  0  0
 27 30  1  0  0  0  0
M  END
>  <DATABASE_ID>
DB12015

>  <DATABASE_NAME>
drugbank

>  <SMILES>
CC1=C(SC(NC(=O)N2CCC[C@H]2C(N)=O)=N1)C1=CC(=NC=C1)C(C)(C)C(F)(F)F

>  <INCHI_IDENTIFIER>
InChI=1S/C19H22F3N5O2S/c1-10-14(11-6-7-24-13(9-11)18(2,3)19(20,21)22)30-16(25-10)26-17(29)27-8-4-5-12(27)15(23)28/h6-7,9,12H,4-5,8H2,1-3H3,(H2,23,28)(H,25,26,29)/t12-/m0/s1

>  <INCHI_KEY>
STUWGJZDJHPWGZ-LBPRGKRZSA-N

>  <FORMULA>
C19H22F3N5O2S

>  <MOLECULAR_WEIGHT>
441.47

>  <EXACT_MASS>
441.144630278

>  <JCHEM_ACCEPTOR_COUNT>
4

>  <JCHEM_ATOM_COUNT>
52

>  <JCHEM_AVERAGE_POLARIZABILITY>
42.75314599063451

>  <JCHEM_BIOAVAILABILITY>
1

>  <JCHEM_DONOR_COUNT>
2

>  <JCHEM_FORMAL_CHARGE>
0

>  <JCHEM_GHOSE_FILTER>
1

>  <JCHEM_IUPAC>
(2S)-N1-{4-methyl-5-[2-(1,1,1-trifluoro-2-methylpropan-2-yl)pyridin-4-yl]-1,3-thiazol-2-yl}pyrrolidine-1,2-dicarboxamide

>  <ALOGPS_LOGP>
2.76

>  <JCHEM_LOGP>
2.8095628946666675

>  <ALOGPS_LOGS>
-4.92

>  <JCHEM_MDDR_LIKE_RULE>
0

>  <JCHEM_NUMBER_OF_RINGS>
3

>  <JCHEM_PHYSIOLOGICAL_CHARGE>
0

>  <JCHEM_PKA>
15.455118652030967

>  <JCHEM_PKA_STRONGEST_ACIDIC>
7.793255919169194

>  <JCHEM_PKA_STRONGEST_BASIC>
2.8100842665906907

>  <JCHEM_POLAR_SURFACE_AREA>
101.21000000000001

>  <JCHEM_REFRACTIVITY>
105.84720000000002

>  <JCHEM_ROTATABLE_BOND_COUNT>
5

>  <JCHEM_RULE_OF_FIVE>
1

>  <ALOGPS_SOLUBILITY>
5.28e-03 g/l

>  <JCHEM_TRADITIONAL_IUPAC>
alpelisib

>  <JCHEM_VEBER_RULE>
0

>  <DRUGBANK_ID>
DB12015

>  <DRUG_GROUPS>
approved; investigational

>  <GENERIC_NAME>
Alpelisib

>  <SYNONYMS>
Alpelisib

>  <PRODUCTS>
Piqray; Vijoice

$$$$

 OpenBabel05042401512D

 46 47  0  0  1  0  0  0  0  0999 V2000
   -3.9295   -0.8249    0.0000 N   0  0  0  0  0  0  0  0  0  0  0  0
   -3.2150   -0.4124    0.0000 C   0  0  1  0  0  0  0  0  0  0  0  0
   -2.5006   -0.8249    0.0000 C   0  0  0  0  0  0  0  0  0  0  0  0
   -1.7861   -0.4124    0.0000 N   0  0  0  0  0  0  0  0  0  0  0  0
   -1.0716   -0.8249    0.0000 C   0  0  2  0  0  0  0  0  0  0  0  0
   -0.3572   -0.4124    0.0000 C   0  0  0  0  0  0  0  0  0  0  0  0
    0.3572   -0.8249    0.0000 N   0  0  0  0  0  0  0  0  0  0  0  0
    1.0717   -0.4124    0.0000 C   0  0  2  0  0  0  0  0  0  0  0  0
    1.7862   -0.8249    0.0000 C   0  0  0  0  0  0  0  0  0  0  0  0
    2.5006   -0.4124    0.0000 N   0  0  0  0  0  0  0  0  0  0  0  0
    3.2151   -0.8249    0.0000 C   0  0  2  0  0  0  0  0  0  0  0  0
    3.9296   -0.4124    0.0000 C   0  0  0  0  0  0  0  0  0  0  0  0
    4.6440   -0.8249    0.0000 N   0  0  0  0  0  0  0  0  0  0  0  0
   -3.2150    0.4125    0.0000 C   0  0  0  0  0  0  0  0  0  0  0  0
   -3.9295    0.8250    0.0000 C   0  0  0  0  0  0  0  0  0  0  0  0
   -3.9295    1.6500    0.0000 C   0  0  0  0  0  0  0  0  0  0  0  0
   -4.6440    2.0625    0.0000 N   0  0  0  0  0  0  0  0  0  0  0  0
   -4.6440    2.8875    0.0000 C   0  0  0  0  0  0  0  0  0  0  0  0
   -5.3585    3.3000    0.0000 N   0  0  0  0  0  0  0  0  0  0  0  0
   -3.9295    3.3000    0.0000 N   0  0  0  0  0  0  0  0  0  0  0  0
   -2.5006   -1.6499    0.0000 O   0  0  0  0  0  0  0  0  0  0  0  0
   -1.0716   -1.6499    0.0000 C   0  0  0  0  0  0  0  0  0  0  0  0
   -0.3572   -2.0624    0.0000 C   0  0  0  0  0  0  0  0  0  0  0  0
   -0.3572   -2.8874    0.0000 C   0  0  0  0  0  0  0  0  0  0  0  0
    0.3572   -3.3000    0.0000 C   0  0  0  0  0  0  0  0  0  0  0  0
    1.0717   -2.8874    0.0000 C   0  0  0  0  0  0  0  0  0  0  0  0
    1.0717   -2.0623    0.0000 C   0  0  0  0  0  0  0  0  0  0  0  0
    0.3572   -1.6498    0.0000 C   0  0  0  0  0  0  0  0  0  0  0  0
    0.9406   -1.0665    0.0000 C   0  0  0  0  0  0  0  0  0  0  0  0
    1.7862   -3.3000    0.0000 O   0  0  0  0  0  0  0  0  0  0  0  0
   -1.0716   -3.3000    0.0000 C   0  0  0  0  0  0  0  0  0  0  0  0
   -0.3572    0.4125    0.0000 O   0  0  0  0  0  0  0  0  0  0  0  0
    1.0717    0.4125    0.0000 C   0  0  0  0  0  0  0  0  0  0  0  0
    1.7862    0.8250    0.0000 C   0  0  0  0  0  0  0  0  0  0  0  0
    1.7862    1.6500    0.0000 C   0  0  0  0  0  0  0  0  0  0  0  0
    2.5006    2.0625    0.0000 C   0  0  0  0  0  0  0  0  0  0  0  0
    2.5006    2.8875    0.0000 N   0  0  0  0  0  0  0  0  0  0  0  0
    1.7862   -1.6499    0.0000 O   0  0  0  0  0  0  0  0  0  0  0  0
    3.2151   -1.6499    0.0000 C   0  0  0  0  0  0  0  0  0  0  0  0
    3.9296   -2.0624    0.0000 C   0  0  0  0  0  0  0  0  0  0  0  0
    3.9296   -2.8874    0.0000 C   0  0  0  0  0  0  0  0  0  0  0  0
    4.6440   -3.3000    0.0000 C   0  0  0  0  0  0  0  0  0  0  0  0
    5.3585   -2.8874    0.0000 C   0  0  0  0  0  0  0  0  0  0  0  0
    5.3585   -2.0623    0.0000 C   0  0  0  0  0  0  0  0  0  0  0  0
    4.6441   -1.6498    0.0000 C   0  0  0  0  0  0  0  0  0  0  0  0
    3.9296    0.4125    0.0000 O   0  0  0  0  0  0  0  0  0  0  0  0
  2  1  1  6  0  0  0
  2  3  1  0  0  0  0
  2 14  1  0  0  0  0
  3  4  1  0  0  0  0
  3 21  2  0  0  0  0
  5  4  1  6  0  0  0
  5  6  1  0  0  0  0
  5 22  1  0  0  0  0
  6  7  1  0  0  0  0
  6 32  2  0  0  0  0
  8  7  1  1  0  0  0
  8  9  1  0  0  0  0
  8 33  1  0  0  0  0
  9 10  1  0  0  0  0
  9 38  2  0  0  0  0
 11 10  1  6  0  0  0
 11 12  1  0  0  0  0
 11 39  1  0  0  0  0
 12 13  1  0  0  0  0
 12 46  2  0  0  0  0
 14 15  1  0  0  0  0
 15 16  1  0  0  0  0
 16 17  1  0  0  0  0
 17 18  1  0  0  0  0
 18 19  1  0  0  0  0
 18 20  2  0  0  0  0
 22 23  1  0  0  0  0
 23 24  1  0  0  0  0
 23 28  2  0  0  0  0
 24 25  2  0  0  0  0
 24 31  1  0  0  0  0
 25 26  1  0  0  0  0
 26 27  2  0  0  0  0
 26 30  1  0  0  0  0
 27 28  1  0  0  0  0
 28 29  1  0  0  0  0
 33 34  1  0  0  0  0
 34 35  1  0  0  0  0
 35 36  1  0  0  0  0
 36 37  1  0  0  0  0
 39 40  1  0  0  0  0
 40 41  1  0  0  0  0
 40 45  2  0  0  0  0
 41 42  2  0  0  0  0
 42 43  1  0  0  0  0
 43 44  2  0  0  0  0
 44 45  1  0  0  0  0
M  END
>  <DATABASE_ID>
DB11981

>  <DATABASE_NAME>
drugbank

>  <SMILES>
CC1=CC(O)=CC(C)=C1C[C@H](NC(=O)[C@H](N)CCCNC(N)=N)C(=O)N[C@@H](CCCCN)C(=O)N[C@@H](CC1=CC=CC=C1)C(N)=O

>  <INCHI_IDENTIFIER>
InChI=1S/C32H49N9O5/c1-19-15-22(42)16-20(2)23(19)18-27(41-29(44)24(34)11-8-14-38-32(36)37)31(46)39-25(12-6-7-13-33)30(45)40-26(28(35)43)17-21-9-4-3-5-10-21/h3-5,9-10,15-16,24-27,42H,6-8,11-14,17-18,33-34H2,1-2H3,(H2,35,43)(H,39,46)(H,40,45)(H,41,44)(H4,36,37,38)/t24-,25+,26+,27+/m1/s1

>  <INCHI_KEY>
SFVLTCAESLKEHH-WKAQUBQDSA-N

>  <FORMULA>
C32H49N9O5

>  <MOLECULAR_WEIGHT>
639.802

>  <EXACT_MASS>
639.385665714

>  <JCHEM_ACCEPTOR_COUNT>
10

>  <JCHEM_ATOM_COUNT>
95

>  <JCHEM_AVERAGE_POLARIZABILITY>
69.7443712164535

>  <JCHEM_BIOAVAILABILITY>
0

>  <JCHEM_DONOR_COUNT>
10

>  <JCHEM_FORMAL_CHARGE>
0

>  <JCHEM_GHOSE_FILTER>
0

>  <JCHEM_IUPAC>
(2S)-6-amino-2-[(2S)-2-[(2R)-2-amino-5-carbamimidamidopentanamido]-3-(4-hydroxy-2,6-dimethylphenyl)propanamido]-N-[(1S)-1-carbamoyl-2-phenylethyl]hexanamide

>  <ALOGPS_LOGP>
-0.12

>  <JCHEM_LOGP>
-0.5105996971719258

>  <ALOGPS_LOGS>
-4.62

>  <JCHEM_MDDR_LIKE_RULE>
0

>  <JCHEM_NUMBER_OF_RINGS>
2

>  <JCHEM_PHYSIOLOGICAL_CHARGE>
3

>  <JCHEM_PKA>
12.363515653733339

>  <JCHEM_PKA_STRONGEST_ACIDIC>
9.617799971280286

>  <JCHEM_PKA_STRONGEST_BASIC>
11.841235346785277

>  <JCHEM_POLAR_SURFACE_AREA>
264.56

>  <JCHEM_REFRACTIVITY>
186.25099999999998

>  <JCHEM_ROTATABLE_BOND_COUNT>
19

>  <JCHEM_RULE_OF_FIVE>
0

>  <ALOGPS_SOLUBILITY>
1.55e-02 g/l

>  <JCHEM_TRADITIONAL_IUPAC>
elamipretide

>  <JCHEM_VEBER_RULE>
0

>  <DRUGBANK_ID>
DB11981

>  <DRUG_GROUPS>
investigational

>  <GENERIC_NAME>
Elamipretide

>  <SYNONYMS>
Elamipretide

>  <SALTS>
Elamipretide hydrochloride

$$$$

 OpenBabel05042401512D

 28 30  0  0  1  0  0  0  0  0999 V2000
   -1.4887   -2.4357    0.0000 C   0  0  0  0  0  0  0  0  0  0  0  0
   -1.8242   -3.1893    0.0000 N   0  0  0  0  0  0  0  0  0  0  0  0
   -1.4117   -3.9038    0.0000 C   0  0  0  0  0  0  0  0  0  0  0  0
   -1.9638   -4.5169    0.0000 C   0  0  0  0  0  0  0  0  0  0  0  0
   -2.7174   -4.1813    0.0000 C   0  0  0  0  0  0  0  0  0  0  0  0
   -2.6312   -3.3609    0.0000 N   0  0  0  0  0  0  0  0  0  0  0  0
   -1.7922   -5.3239    0.0000 Cl  0  0  0  0  0  0  0  0  0  0  0  0
   -0.5912   -3.9900    0.0000 C   0  0  0  0  0  0  0  0  0  0  0  0
   -0.0392   -3.3769    0.0000 C   0  0  0  0  0  0  0  0  0  0  0  0
    0.7145   -3.7125    0.0000 C   0  0  0  0  0  0  0  0  0  0  0  0
    0.6282   -4.5330    0.0000 O   0  0  0  0  0  0  0  0  0  0  0  0
   -0.1787   -4.7045    0.0000 C   0  0  0  0  0  0  0  0  0  0  0  0
   -0.5143   -5.4582    0.0000 Cl  0  0  0  0  0  0  0  0  0  0  0  0
    1.4289   -3.3000    0.0000 C   0  0  0  0  0  0  0  0  0  0  0  0
    2.1434   -3.7125    0.0000 O   0  0  0  0  0  0  0  0  0  0  0  0
    1.4289   -2.4750    0.0000 N   0  0  0  0  0  0  0  0  0  0  0  0
    2.1434   -2.0625    0.0000 C   0  0  1  0  0  0  0  0  0  0  0  0
    2.1434   -1.2375    0.0000 C   0  0  0  0  0  0  0  0  0  0  0  0
    2.8579   -0.8250    0.0000 C   0  0  0  0  0  0  0  0  0  0  0  0
    2.8579    0.0000    0.0000 C   0  0  0  0  0  0  0  0  0  0  0  0
    3.5724    0.4125    0.0000 C   0  0  0  0  0  0  0  0  0  0  0  0
    4.2868    0.0000    0.0000 C   0  0  0  0  0  0  0  0  0  0  0  0
    4.2868   -0.8250    0.0000 C   0  0  0  0  0  0  0  0  0  0  0  0
    3.5724   -1.2375    0.0000 C   0  0  0  0  0  0  0  0  0  0  0  0
    5.0013   -1.2375    0.0000 F   0  0  0  0  0  0  0  0  0  0  0  0
    5.0013    0.4125    0.0000 F   0  0  0  0  0  0  0  0  0  0  0  0
    2.8579   -2.4750    0.0000 C   0  0  0  0  0  0  0  0  0  0  0  0
    2.8579   -3.3000    0.0000 N   0  0  0  0  0  0  0  0  0  0  0  0
  1  2  1  0  0  0  0
  2  3  1  0  0  0  0
  2  6  1  0  0  0  0
  3  4  2  0  0  0  0
  3  8  1  0  0  0  0
  4  5  1  0  0  0  0
  4  7  1  0  0  0  0
  5  6  2  0  0  0  0
  8  9  1  0  0  0  0
  8 12  2  0  0  0  0
  9 10  2  0  0  0  0
 10 11  1  0  0  0  0
 10 14  1  0  0  0  0
 11 12  1  0  0  0  0
 12 13  1  0  0  0  0
 14 15  2  0  0  0  0
 14 16  1  0  0  0  0
 17 16  1  1  0  0  0
 17 18  1  0  0  0  0
 17 27  1  0  0  0  0
 18 19  1  0  0  0  0
 19 20  2  0  0  0  0
 19 24  1  0  0  0  0
 20 21  1  0  0  0  0
 21 22  2  0  0  0  0
 22 23  1  0  0  0  0
 22 26  1  0  0  0  0
 23 24  2  0  0  0  0
 23 25  1  0  0  0  0
 27 28  1  0  0  0  0
M  END
>  <DATABASE_ID>
DB11969

>  <DATABASE_NAME>
drugbank

>  <SMILES>
CN1N=CC(Cl)=C1C1=C(Cl)OC(=C1)C(=O)N[C@H](CN)CC1=CC=C(F)C(F)=C1

>  <INCHI_IDENTIFIER>
InChI=1S/C18H16Cl2F2N4O2/c1-26-16(12(19)8-24-26)11-6-15(28-17(11)20)18(27)25-10(7-23)4-9-2-3-13(21)14(22)5-9/h2-3,5-6,8,10H,4,7,23H2,1H3,(H,25,27)/t10-/m0/s1

>  <INCHI_KEY>
AXTAPYRUEKNRBA-JTQLQIEISA-N

>  <FORMULA>
C18H16Cl2F2N4O2

>  <MOLECULAR_WEIGHT>
429.25

>  <EXACT_MASS>
428.0618375

>  <JCHEM_ACCEPTOR_COUNT>
3

>  <JCHEM_ATOM_COUNT>
44

>  <JCHEM_AVERAGE_POLARIZABILITY>
39.38428374269353

>  <JCHEM_BIOAVAILABILITY>
1

>  <JCHEM_DONOR_COUNT>
2

>  <JCHEM_FORMAL_CHARGE>
0

>  <JCHEM_GHOSE_FILTER>
1

>  <JCHEM_IUPAC>
N-[(2S)-1-amino-3-(3,4-difluorophenyl)propan-2-yl]-5-chloro-4-(4-chloro-1-methyl-1H-pyrazol-5-yl)furan-2-carboxamide

>  <ALOGPS_LOGP>
3.26

>  <JCHEM_LOGP>
2.5873168280000005

>  <ALOGPS_LOGS>
-4.09

>  <JCHEM_MDDR_LIKE_RULE>
0

>  <JCHEM_NUMBER_OF_RINGS>
3

>  <JCHEM_PHYSIOLOGICAL_CHARGE>
1

>  <JCHEM_PKA_STRONGEST_ACIDIC>
14.039191670409696

>  <JCHEM_PKA_STRONGEST_BASIC>
9.024120380860888

>  <JCHEM_POLAR_SURFACE_AREA>
86.08

>  <JCHEM_REFRACTIVITY>
113.37219999999998

>  <JCHEM_ROTATABLE_BOND_COUNT>
5

>  <JCHEM_RULE_OF_FIVE>
1

>  <ALOGPS_SOLUBILITY>
3.51e-02 g/l

>  <JCHEM_TRADITIONAL_IUPAC>
N-[(2S)-1-amino-3-(3,4-difluorophenyl)propan-2-yl]-5-chloro-4-(4-chloro-2-methylpyrazol-3-yl)furan-2-carboxamide

>  <JCHEM_VEBER_RULE>
0

>  <DRUGBANK_ID>
DB11969

>  <DRUG_GROUPS>
investigational

>  <GENERIC_NAME>
Uprosertib

>  <SYNONYMS>
Uprosertib

>  <SALTS>
Uprosertib Hydrochloride

$$$$

 OpenBabel05042401512D

 36 40  0  0  0  0  0  0  0  0999 V2000
   -1.4534   -2.1269    0.0000 C   0  0  0  0  0  0  0  0  0  0  0  0
   -1.8659   -1.4124    0.0000 N   0  0  0  0  0  0  0  0  0  0  0  0
   -1.4534   -0.6979    0.0000 C   0  0  0  0  0  0  0  0  0  0  0  0
   -0.6284   -0.6979    0.0000 C   0  0  0  0  0  0  0  0  0  0  0  0
   -0.1435   -1.3654    0.0000 C   0  0  0  0  0  0  0  0  0  0  0  0
    0.6411   -1.1104    0.0000 C   0  0  0  0  0  0  0  0  0  0  0  0
    0.6411   -0.2854    0.0000 C   0  0  0  0  0  0  0  0  0  0  0  0
   -0.1435   -0.0305    0.0000 S   0  0  0  0  0  0  0  0  0  0  0  0
    1.3556    0.1271    0.0000 C   0  0  0  0  0  0  0  0  0  0  0  0
    2.0701   -0.2854    0.0000 N   0  0  0  0  0  0  0  0  0  0  0  0
    2.0701   -1.1104    0.0000 C   0  0  0  0  0  0  0  0  0  0  0  0
    1.3556   -1.5229    0.0000 N   0  0  0  0  0  0  0  0  0  0  0  0
    2.7845   -1.5229    0.0000 C   0  0  0  0  0  0  0  0  0  0  0  0
    3.4990   -1.1104    0.0000 C   0  0  0  0  0  0  0  0  0  0  0  0
    4.2135   -1.5229    0.0000 C   0  0  0  0  0  0  0  0  0  0  0  0
    4.2135   -2.3479    0.0000 C   0  0  0  0  0  0  0  0  0  0  0  0
    3.4990   -2.7604    0.0000 N   0  0  0  0  0  0  0  0  0  0  0  0
    2.7845   -2.3479    0.0000 C   0  0  0  0  0  0  0  0  0  0  0  0
    4.9279   -2.7604    0.0000 O   0  0  0  0  0  0  0  0  0  0  0  0
    4.9279   -3.5854    0.0000 C   0  0  0  0  0  0  0  0  0  0  0  0
    1.3556    0.9521    0.0000 N   0  0  0  0  0  0  0  0  0  0  0  0
    0.6411    1.3646    0.0000 C   0  0  0  0  0  0  0  0  0  0  0  0
    0.6411    2.1896    0.0000 C   0  0  0  0  0  0  0  0  0  0  0  0
    1.3556    2.6021    0.0000 O   0  0  0  0  0  0  0  0  0  0  0  0
    2.0701    2.1896    0.0000 C   0  0  0  0  0  0  0  0  0  0  0  0
    2.0701    1.3646    0.0000 C   0  0  0  0  0  0  0  0  0  0  0  0
   -2.6909   -1.4124    0.0000 C   0  0  0  0  0  0  0  0  0  0  0  0
   -3.1034   -2.1269    0.0000 N   0  0  0  0  0  0  0  0  0  0  0  0
   -3.9284   -2.1269    0.0000 C   0  0  0  0  0  0  0  0  0  0  0  0
   -4.3409   -1.4124    0.0000 C   0  0  0  0  0  0  0  0  0  0  0  0
   -3.9284   -0.6979    0.0000 C   0  0  0  0  0  0  0  0  0  0  0  0
   -3.1034   -0.6979    0.0000 N   0  0  0  0  0  0  0  0  0  0  0  0
   -5.1659   -1.4124    0.0000 C   0  0  0  0  0  0  0  0  0  0  0  0
   -5.5784   -2.1269    0.0000 O   0  0  0  0  0  0  0  0  0  0  0  0
   -5.5784   -0.6979    0.0000 N   0  0  0  0  0  0  0  0  0  0  0  0
   -6.4034   -0.6979    0.0000 O   0  0  0  0  0  0  0  0  0  0  0  0
  1  2  1  0  0  0  0
  2  3  1  0  0  0  0
  2 27  1  0  0  0  0
  3  4  1  0  0  0  0
  4  5  2  0  0  0  0
  4  8  1  0  0  0  0
  5  6  1  0  0  0  0
  6  7  1  0  0  0  0
  6 12  2  0  0  0  0
  7  8  1  0  0  0  0
  7  9  2  0  0  0  0
  9 10  1  0  0  0  0
  9 21  1  0  0  0  0
 10 11  2  0  0  0  0
 11 12  1  0  0  0  0
 11 13  1  0  0  0  0
 13 14  2  0  0  0  0
 13 18  1  0  0  0  0
 14 15  1  0  0  0  0
 15 16  2  0  0  0  0
 16 17  1  0  0  0  0
 16 19  1  0  0  0  0
 17 18  2  0  0  0  0
 19 20  1  0  0  0  0
 21 22  1  0  0  0  0
 21 26  1  0  0  0  0
 22 23  1  0  0  0  0
 23 24  1  0  0  0  0
 24 25  1  0  0  0  0
 25 26  1  0  0  0  0
 27 28  2  0  0  0  0
 27 32  1  0  0  0  0
 28 29  1  0  0  0  0
 29 30  2  0  0  0  0
 30 31  1  0  0  0  0
 30 33  1  0  0  0  0
 31 32  2  0  0  0  0
 33 34  2  0  0  0  0
 33 35  1  0  0  0  0
 35 36  1  0  0  0  0
M  END
>  <DATABASE_ID>
DB11891

>  <DATABASE_NAME>
drugbank

>  <SMILES>
COC1=CC=C(C=N1)C1=NC(N2CCOCC2)=C2SC(CN(C)C3=NC=C(C=N3)C(=O)NO)=CC2=N1

>  <INCHI_IDENTIFIER>
InChI=1S/C23H24N8O4S/c1-30(23-25-11-15(12-26-23)22(32)29-33)13-16-9-17-19(36-16)21(31-5-7-35-8-6-31)28-20(27-17)14-3-4-18(34-2)24-10-14/h3-4,9-12,33H,5-8,13H2,1-2H3,(H,29,32)

>  <INCHI_KEY>
JOWXJLIFIIOYMS-UHFFFAOYSA-N

>  <FORMULA>
C23H24N8O4S

>  <MOLECULAR_WEIGHT>
508.56

>  <EXACT_MASS>
508.164122459

>  <JCHEM_ACCEPTOR_COUNT>
11

>  <JCHEM_ATOM_COUNT>
60

>  <JCHEM_AVERAGE_POLARIZABILITY>
53.00569532828056

>  <JCHEM_BIOAVAILABILITY>
0

>  <JCHEM_DONOR_COUNT>
2

>  <JCHEM_FORMAL_CHARGE>
0

>  <JCHEM_GHOSE_FILTER>
0

>  <JCHEM_IUPAC>
N-hydroxy-2-({[2-(6-methoxypyridin-3-yl)-4-(morpholin-4-yl)thieno[3,2-d]pyrimidin-6-yl]methyl}(methyl)amino)pyrimidine-5-carboxamide

>  <ALOGPS_LOGP>
2.59

>  <JCHEM_LOGP>
2.784270751333334

>  <ALOGPS_LOGS>
-4.52

>  <JCHEM_MDDR_LIKE_RULE>
1

>  <JCHEM_NUMBER_OF_RINGS>
5

>  <JCHEM_PHYSIOLOGICAL_CHARGE>
0

>  <JCHEM_PKA>
18.295882050413898

>  <JCHEM_PKA_STRONGEST_ACIDIC>
9.235002789836603

>  <JCHEM_PKA_STRONGEST_BASIC>
3.36244369217179

>  <JCHEM_POLAR_SURFACE_AREA>
138.72

>  <JCHEM_REFRACTIVITY>
145.8165

>  <JCHEM_ROTATABLE_BOND_COUNT>
7

>  <JCHEM_RULE_OF_FIVE>
0

>  <ALOGPS_SOLUBILITY>
1.53e-02 g/l

>  <JCHEM_TRADITIONAL_IUPAC>
N-hydroxy-2-({[2-(6-methoxypyridin-3-yl)-4-(morpholin-4-yl)thieno[3,2-d]pyrimidin-6-yl]methyl}(methyl)amino)pyrimidine-5-carboxamide

>  <JCHEM_VEBER_RULE>
0

>  <DRUGBANK_ID>
DB11891

>  <DRUG_GROUPS>
investigational

>  <GENERIC_NAME>
Fimepinostat

>  <SYNONYMS>
5-pyrimidinecarboxamide, N-hydroxy-2-[[[2-(6-methoxy-3-pyridinyl)-4-(4-morpholinyl)thieno[3,2-d]pyrimidin-6-yl]methyl]methylamino]-; N-hydroxy-2-(((2-(6-methoxypyridin-3-yl)-4-morpholinothieno[3,2-d]pyrimidin-6-yl)methyl)(methyl)amino)pyrimidine-5-carboxamide; PI3K/HDAC inhibitor CUDC-907

>  <SALTS>
Fimepinostat mesylate

$$$$

 OpenBabel05042401512D

 42 43  0  0  1  0  0  0  0  0999 V2000
   -0.1306    1.3801    0.0000 C   0  0  0  0  0  0  0  0  0  0  0  0
   -0.1306    0.5550    0.0000 N   0  0  0  0  0  0  0  0  0  0  0  0
    1.2984    1.3801    0.0000 N   0  0  0  0  0  0  0  0  0  0  0  0
    0.5838    1.7927    0.0000 C   0  0  0  0  0  0  0  0  0  0  0  0
   -0.8454    0.1423    0.0000 C   0  0  0  0  0  0  0  0  0  0  0  0
   -0.8454   -0.6827    0.0000 C   0  0  1  0  0  0  0  0  0  0  0  0
   -0.1306   -1.0953    0.0000 N   0  0  0  0  0  0  0  0  0  0  0  0
   -0.1306   -1.9204    0.0000 C   0  0  0  0  0  0  0  0  0  0  0  0
    0.5838   -2.3330    0.0000 C   0  0  1  0  0  0  0  0  0  0  0  0
    1.2984   -1.9204    0.0000 N   0  0  0  0  0  0  0  0  0  0  0  0
    1.2984   -1.0953    0.0000 C   0  0  0  0  0  0  0  0  0  0  0  0
    2.0240   -0.6762    0.0000 C   0  0  2  0  0  0  0  0  0  0  0  0
    2.0240    0.1423    0.0000 N   0  0  0  0  0  0  0  0  0  0  0  0
    0.5838    2.6178    0.0000 O   0  0  0  0  0  0  0  0  0  0  0  0
   -1.5499    0.5493    0.0000 O   0  0  0  0  0  0  0  0  0  0  0  0
   -0.8454   -2.3330    0.0000 O   0  0  0  0  0  0  0  0  0  0  0  0
    0.5950   -0.6890    0.0000 O   0  0  0  0  0  0  0  0  0  0  0  0
   -1.5499   -1.0896    0.0000 C   0  0  0  0  0  0  0  0  0  0  0  0
   -2.2498   -0.6856    0.0000 C   0  0  0  0  0  0  0  0  0  0  0  0
   -2.9519   -1.0911    0.0000 C   0  0  0  0  0  0  0  0  0  0  0  0
   -3.6531   -0.6863    0.0000 N   0  0  0  0  0  0  0  0  0  0  0  0
   -4.3545   -1.0915    0.0000 C   0  0  0  0  0  0  0  0  0  0  0  0
   -5.0559   -0.6865    0.0000 N   0  0  0  0  0  0  0  0  0  0  0  0
   -4.3545   -1.9203    0.0000 N   0  0  0  0  0  0  0  0  0  0  0  0
    0.5838   -3.1581    0.0000 C   0  0  0  0  0  0  0  0  0  0  0  0
   -0.1406   -3.5765    0.0000 C   0  0  0  0  0  0  0  0  0  0  0  0
    1.2884   -3.5650    0.0000 C   0  0  0  0  0  0  0  0  0  0  0  0
    2.0240   -2.3395    0.0000 C   0  0  0  0  0  0  0  0  0  0  0  0
    2.9407   -1.2925    0.0000 C   0  0  0  0  0  0  0  0  0  0  0  0
    3.6376   -0.8901    0.0000 C   0  0  0  0  0  0  0  0  0  0  0  0
    4.3413   -1.2964    0.0000 C   0  0  0  0  0  0  0  0  0  0  0  0
    5.0559   -0.8838    0.0000 C   0  0  0  0  0  0  0  0  0  0  0  0
    5.0559   -0.0586    0.0000 C   0  0  0  0  0  0  0  0  0  0  0  0
    4.3521    0.3476    0.0000 C   0  0  0  0  0  0  0  0  0  0  0  0
    3.6376   -0.0649    0.0000 C   0  0  0  0  0  0  0  0  0  0  0  0
    2.0240    1.7992    0.0000 C   0  0  2  0  0  0  0  0  0  0  0  0
    2.7314    0.5511    0.0000 C   0  0  0  0  0  0  0  0  0  0  0  0
    3.5123    0.3386    0.0000 O   0  0  0  0  0  0  0  0  0  0  0  0
    2.2383    2.5870    0.0000 C   0  0  0  0  0  0  0  0  0  0  0  0
    3.0173    2.7924    0.0000 C   0  0  0  0  0  0  0  0  0  0  0  0
    3.5968    2.2082    0.0000 O   0  0  0  0  0  0  0  0  0  0  0  0
    3.2308    3.5765    0.0000 O   0  0  0  0  0  0  0  0  0  0  0  0
  1  2  1  0  0  0  0
  1  4  1  0  0  0  0
  2  5  1  0  0  0  0
  3  4  1  0  0  0  0
  3 36  1  0  0  0  0
  4 14  2  0  0  0  0
  5  6  1  0  0  0  0
  5 15  2  0  0  0  0
  6  7  1  0  0  0  0
  6 18  1  1  0  0  0
  7  8  1  0  0  0  0
  8  9  1  0  0  0  0
  8 16  2  0  0  0  0
  9 10  1  0  0  0  0
  9 25  1  1  0  0  0
 10 11  1  0  0  0  0
 10 28  1  0  0  0  0
 11 12  1  0  0  0  0
 11 17  2  0  0  0  0
 12 13  1  0  0  0  0
 12 29  1  6  0  0  0
 13 37  1  0  0  0  0
 18 19  1  0  0  0  0
 19 20  1  0  0  0  0
 20 21  1  0  0  0  0
 21 22  1  0  0  0  0
 22 23  1  0  0  0  0
 22 24  2  0  0  0  0
 25 26  1  0  0  0  0
 25 27  1  0  0  0  0
 29 30  1  0  0  0  0
 30 31  2  0  0  0  0
 30 35  1  0  0  0  0
 31 32  1  0  0  0  0
 32 33  2  0  0  0  0
 33 34  1  0  0  0  0
 34 35  2  0  0  0  0
 36 37  1  0  0  0  0
 36 39  1  1  0  0  0
 37 38  2  0  0  0  0
 39 40  1  0  0  0  0
 40 41  1  0  0  0  0
 40 42  2  0  0  0  0
M  END
>  <DATABASE_ID>
DB11890

>  <DATABASE_NAME>
drugbank

>  <SMILES>
CC(C)[C@@H]1N(C)C(=O)[C@@H](CC2=CC=CC=C2)NC(=O)[C@H](CC(O)=O)NC(=O)CNC(=O)[C@H](CCCNC(N)=N)NC1=O

>  <INCHI_IDENTIFIER>
InChI=1S/C27H40N8O7/c1-15(2)22-25(41)33-17(10-7-11-30-27(28)29)23(39)31-14-20(36)32-18(13-21(37)38)24(40)34-19(26(42)35(22)3)12-16-8-5-4-6-9-16/h4-6,8-9,15,17-19,22H,7,10-14H2,1-3H3,(H,31,39)(H,32,36)(H,33,41)(H,34,40)(H,37,38)(H4,28,29,30)/t17-,18-,19+,22-/m0/s1

>  <INCHI_KEY>
AMLYAMJWYAIXIA-VWNVYAMZSA-N

>  <FORMULA>
C27H40N8O7

>  <MOLECULAR_WEIGHT>
588.666

>  <EXACT_MASS>
588.30199566

>  <JCHEM_ACCEPTOR_COUNT>
10

>  <JCHEM_ATOM_COUNT>
82

>  <JCHEM_AVERAGE_POLARIZABILITY>
59.80167627525174

>  <JCHEM_BIOAVAILABILITY>
0

>  <JCHEM_DONOR_COUNT>
8

>  <JCHEM_FORMAL_CHARGE>
0

>  <JCHEM_GHOSE_FILTER>
0

>  <JCHEM_IUPAC>
2-[(2S,5R,8S,11S)-5-benzyl-11-(3-carbamimidamidopropyl)-7-methyl-3,6,9,12,15-pentaoxo-8-(propan-2-yl)-1,4,7,10,13-pentaazacyclopentadecan-2-yl]acetic acid

>  <ALOGPS_LOGP>
-0.96

>  <JCHEM_LOGP>
-3.6810706207357833

>  <ALOGPS_LOGS>
-3.61

>  <JCHEM_MDDR_LIKE_RULE>
0

>  <JCHEM_NUMBER_OF_RINGS>
2

>  <JCHEM_PHYSIOLOGICAL_CHARGE>
0

>  <JCHEM_PKA>
10.61911799765917

>  <JCHEM_PKA_STRONGEST_ACIDIC>
3.5854800014828627

>  <JCHEM_PKA_STRONGEST_BASIC>
12.018206855943424

>  <JCHEM_POLAR_SURFACE_AREA>
235.90999999999997

>  <JCHEM_REFRACTIVITY>
159.96560000000005

>  <JCHEM_ROTATABLE_BOND_COUNT>
9

>  <JCHEM_RULE_OF_FIVE>
0

>  <ALOGPS_SOLUBILITY>
1.44e-01 g/l

>  <JCHEM_TRADITIONAL_IUPAC>
4-{[2-amino-2-({2-carboxy-1-[(1-carboxy-2-sulfanylethyl)carbamoyl]ethyl}carbamoyl)ethyl]carbamoyl}-2-[(4-{[(4-oxo-1H-pteridin-6-yl)methyl]amino}phenyl)formamido]butanoic acid

>  <JCHEM_VEBER_RULE>
0

>  <DRUGBANK_ID>
DB11890

>  <DRUG_GROUPS>
investigational

>  <GENERIC_NAME>
Cilengitide

>  <SYNONYMS>
Cilengitida; Cilengitide; Cilengitidum

>  <SALTS>
Cilengitide hydrochloride

$$$$

 OpenBabel05042401512D

 39 39  0  0  1  0  0  0  0  0999 V2000
   -0.7144   -1.3257    0.0000 N   0  0  0  0  0  0  0  0  0  0  0  0
   -1.3819   -1.8106    0.0000 C   0  0  0  0  0  0  0  0  0  0  0  0
   -1.1269   -2.5952    0.0000 C   0  0  0  0  0  0  0  0  0  0  0  0
   -0.3019   -2.5952    0.0000 C   0  0  0  0  0  0  0  0  0  0  0  0
   -0.0470   -1.8106    0.0000 C   0  0  1  0  0  0  0  0  0  0  0  0
    0.7375   -1.5557    0.0000 C   0  0  0  0  0  0  0  0  0  0  0  0
    0.9091   -0.7488    0.0000 O   0  0  0  0  0  0  0  0  0  0  0  0
    1.3506   -2.1078    0.0000 N   0  0  0  0  0  0  0  0  0  0  0  0
    2.1353   -1.8527    0.0000 C   0  0  2  0  0  0  0  0  0  0  0  0
    2.7483   -2.4049    0.0000 C   0  0  0  0  0  0  0  0  0  0  0  0
    2.3068   -1.0458    0.0000 C   0  0  0  0  0  0  0  0  0  0  0  0
    3.5330   -2.1499    0.0000 N   0  0  0  0  0  0  0  0  0  0  0  0
    2.5768   -3.2118    0.0000 O   0  0  0  0  0  0  0  0  0  0  0  0
   -0.7144   -0.5007    0.0000 C   0  0  0  0  0  0  0  0  0  0  0  0
    0.0000   -0.0881    0.0000 O   0  0  0  0  0  0  0  0  0  0  0  0
   -1.4289   -0.0881    0.0000 C   0  0  1  0  0  0  0  0  0  0  0  0
   -1.4289    0.7368    0.0000 N   0  0  0  0  0  0  0  0  0  0  0  0
   -2.1435    1.1492    0.0000 C   0  0  0  0  0  0  0  0  0  0  0  0
   -2.1435   -0.5007    0.0000 C   0  0  0  0  0  0  0  0  0  0  0  0
   -2.8578   -0.0881    0.0000 C   0  0  0  0  0  0  0  0  0  0  0  0
   -2.1435   -1.3257    0.0000 C   0  0  0  0  0  0  0  0  0  0  0  0
   -2.1435    1.9742    0.0000 C   0  0  3  0  0  0  0  0  0  0  0  0
   -2.8578    0.7368    0.0000 O   0  0  0  0  0  0  0  0  0  0  0  0
   -2.8578    2.3868    0.0000 C   0  0  1  0  0  0  0  0  0  0  0  0
   -2.8578    3.2118    0.0000 C   0  0  0  0  0  0  0  0  0  0  0  0
   -1.4289    2.3868    0.0000 N   0  0  0  0  0  0  0  0  0  0  0  0
   -0.7144    1.9742    0.0000 C   0  0  0  0  0  0  0  0  0  0  0  0
   -3.5723    1.9742    0.0000 C   0  0  0  0  0  0  0  0  0  0  0  0
   -4.2868    2.3868    0.0000 C   0  0  0  0  0  0  0  0  0  0  0  0
    0.0000    2.3868    0.0000 C   0  0  2  0  0  0  0  0  0  0  0  0
   -0.7144    1.1492    0.0000 O   0  0  0  0  0  0  0  0  0  0  0  0
    0.7144    1.9742    0.0000 C   0  0  0  0  0  0  0  0  0  0  0  0
    0.0000    3.2118    0.0000 N   0  0  0  0  0  0  0  0  0  0  0  0
    1.4289    2.3868    0.0000 C   0  0  0  0  0  0  0  0  0  0  0  0
    2.1435    1.9742    0.0000 C   0  0  0  0  0  0  0  0  0  0  0  0
    2.8578    2.3868    0.0000 N   0  0  0  0  0  0  0  0  0  0  0  0
    3.5723    1.9742    0.0000 C   0  0  0  0  0  0  0  0  0  0  0  0
    4.2868    2.3868    0.0000 N   0  0  0  0  0  0  0  0  0  0  0  0
    3.5723    1.1492    0.0000 N   0  0  0  0  0  0  0  0  0  0  0  0
  1  2  1  0  0  0  0
  1  5  1  0  0  0  0
  1 14  1  0  0  0  0
  2  3  1  0  0  0  0
  3  4  1  0  0  0  0
  4  5  1  0  0  0  0
  5  6  1  6  0  0  0
  6  7  2  0  0  0  0
  6  8  1  0  0  0  0
  9  8  1  1  0  0  0
  9 10  1  0  0  0  0
  9 11  1  0  0  0  0
 10 12  1  0  0  0  0
 10 13  2  0  0  0  0
 14 15  2  0  0  0  0
 16 14  1  6  0  0  0
 16 17  1  0  0  0  0
 16 19  1  0  0  0  0
 17 18  1  0  0  0  0
 18 22  1  0  0  0  0
 18 23  2  0  0  0  0
 19 20  1  0  0  0  0
 19 21  1  0  0  0  0
 22 24  1  0  0  0  0
 22 26  1  0  0  0  0
 24 25  1  6  0  0  0
 24 28  1  0  0  0  0
 26 27  1  0  0  0  0
 27 31  2  0  0  0  0
 28 29  1  0  0  0  0
 30 27  1  1  0  0  0
 30 32  1  0  0  0  0
 30 33  1  0  0  0  0
 32 34  1  0  0  0  0
 34 35  1  0  0  0  0
 35 36  1  0  0  0  0
 36 37  1  0  0  0  0
 37 38  1  0  0  0  0
 37 39  2  0  0  0  0
M  END
>  <DATABASE_ID>
DB11879

>  <DATABASE_NAME>
drugbank

>  <SMILES>
CC[C@H](C)C(NC(=O)[C@@H](N)CCCNC(N)=N)C(=O)N[C@@H](C(C)C)C(=O)N1CCC[C@H]1C(=O)N[C@@H](C)C(N)=O

>  <INCHI_IDENTIFIER>
InChI=1S/C25H47N9O5/c1-6-14(4)19(33-21(36)16(26)9-7-11-30-25(28)29)23(38)32-18(13(2)3)24(39)34-12-8-10-17(34)22(37)31-15(5)20(27)35/h13-19H,6-12,26H2,1-5H3,(H2,27,35)(H,31,37)(H,32,38)(H,33,36)(H4,28,29,30)/t14-,15-,16-,17-,18-,19?/m0/s1

>  <INCHI_KEY>
ZUJBBVJXXYRPFS-OUROWQTJSA-N

>  <FORMULA>
C25H47N9O5

>  <MOLECULAR_WEIGHT>
553.709

>  <EXACT_MASS>
553.370015649

>  <JCHEM_ACCEPTOR_COUNT>
9

>  <JCHEM_ATOM_COUNT>
86

>  <JCHEM_AVERAGE_POLARIZABILITY>
59.370444337852305

>  <JCHEM_BIOAVAILABILITY>
0

>  <JCHEM_DONOR_COUNT>
8

>  <JCHEM_FORMAL_CHARGE>
0

>  <JCHEM_GHOSE_FILTER>
0

>  <JCHEM_IUPAC>
(3S)-2-[(2S)-2-amino-5-carbamimidamidopentanamido]-N-[(2S)-1-[(2S)-2-{[(1S)-1-carbamoylethyl]carbamoyl}pyrrolidin-1-yl]-3-methyl-1-oxobutan-2-yl]-3-methylpentanamide

>  <ALOGPS_LOGP>
-0.52

>  <JCHEM_LOGP>
-2.3881288431769376

>  <ALOGPS_LOGS>
-3.75

>  <JCHEM_MDDR_LIKE_RULE>
0

>  <JCHEM_NUMBER_OF_RINGS>
1

>  <JCHEM_PHYSIOLOGICAL_CHARGE>
2

>  <JCHEM_PKA>
12.565418049568818

>  <JCHEM_PKA_STRONGEST_ACIDIC>
12.21060766739942

>  <JCHEM_PKA_STRONGEST_BASIC>
11.740478286974337

>  <JCHEM_POLAR_SURFACE_AREA>
238.62

>  <JCHEM_REFRACTIVITY>
155.2162

>  <JCHEM_ROTATABLE_BOND_COUNT>
15

>  <JCHEM_RULE_OF_FIVE>
0

>  <ALOGPS_SOLUBILITY>
9.92e-02 g/l

>  <JCHEM_TRADITIONAL_IUPAC>
4-{[2-amino-2-({2-carboxy-1-[(1-carboxy-2-sulfanylethyl)carbamoyl]ethyl}carbamoyl)ethyl]carbamoyl}-2-[(4-{[(4-oxo-1H-pteridin-6-yl)methyl]amino}phenyl)formamido]butanoic acid

>  <JCHEM_VEBER_RULE>
0

>  <DRUGBANK_ID>
DB11879

>  <DRUG_GROUPS>
investigational

>  <GENERIC_NAME>
Dusquetide

>  <SYNONYMS>
ARG-ILE-VAL-PRO-ALA-NH2; Dusquetide; L-ALANINAMIDE, L-ARGINYL-L-ISOLEUCYL-L-VALYL-L-PROLYL-; L-ARGINYL-L-ISOLEUCYL-L-VALYL-L-PROLYL-L-ALANINAMIDE; L-arginyl-L-isoleucyl-L-valyl-L-prolyl-L-alanine-amide

$$$$

 OpenBabel05042401512D

 13 12  0  0  1  0  0  0  0  0999 V2000
    2.2836    2.3973    0.0000 C   0  0  0  0  0  0  0  0  0  0  0  0
    2.9980    1.9848    0.0000 N   0  0  0  0  0  0  0  0  0  0  0  0
    3.7125    2.3973    0.0000 C   0  0  0  0  0  0  0  0  0  0  0  0
    3.7125    3.2223    0.0000 N   0  0  0  0  0  0  0  0  0  0  0  0
    4.4270    1.9848    0.0000 N   0  0  0  0  0  0  0  0  0  0  0  0
    5.1414    2.3973    0.0000 C   0  0  0  0  0  0  0  0  0  0  0  0
    5.8559    1.9848    0.0000 C   0  0  0  0  0  0  0  0  0  0  0  0
    6.5704    2.3973    0.0000 C   0  0  0  0  0  0  0  0  0  0  0  0
    7.2849    1.9848    0.0000 C   0  0  2  0  0  0  0  0  0  0  0  0
    7.2849    1.1598    0.0000 N   0  0  0  0  0  0  0  0  0  0  0  0
    7.9993    2.3973    0.0000 C   0  0  0  0  0  0  0  0  0  0  0  0
    8.7138    1.9848    0.0000 O   0  0  0  0  0  0  0  0  0  0  0  0
    7.9993    3.2223    0.0000 O   0  0  0  0  0  0  0  0  0  0  0  0
  1  2  1  0  0  0  0
  2  3  1  0  0  0  0
  3  4  2  0  0  0  0
  3  5  1  0  0  0  0
  5  6  1  0  0  0  0
  6  7  1  0  0  0  0
  7  8  1  0  0  0  0
  9  8  1  1  0  0  0
  9 10  1  0  0  0  0
  9 11  1  0  0  0  0
 11 12  1  0  0  0  0
 11 13  2  0  0  0  0
M  END
>  <DATABASE_ID>
DB11815

>  <DATABASE_NAME>
drugbank

>  <SMILES>
CNC(=N)NCCC[C@H](N)C(O)=O

>  <INCHI_IDENTIFIER>
InChI=1S/C7H16N4O2/c1-10-7(9)11-4-2-3-5(8)6(12)13/h5H,2-4,8H2,1H3,(H,12,13)(H3,9,10,11)/t5-/m0/s1

>  <INCHI_KEY>
NTNWOCRCBQPEKQ-YFKPBYRVSA-N

>  <FORMULA>
C7H16N4O2

>  <MOLECULAR_WEIGHT>
188.2275

>  <EXACT_MASS>
188.127325776

>  <JCHEM_ACCEPTOR_COUNT>
6

>  <JCHEM_ATOM_COUNT>
29

>  <JCHEM_AVERAGE_NEUTRAL_MICROSPECIES_CHARGE>
0.9925267288807879

>  <JCHEM_AVERAGE_POLARIZABILITY>
19.789803172459905

>  <JCHEM_BIOAVAILABILITY>
1

>  <JCHEM_DONOR_COUNT>
5

>  <JCHEM_FORMAL_CHARGE>
0

>  <JCHEM_GHOSE_FILTER>
0

>  <JCHEM_IUPAC>
(2S)-2-amino-5-(N'-methylcarbamimidamido)pentanoic acid

>  <ALOGPS_LOGP>
-3.50

>  <JCHEM_LOGP>
-2.8717080935457284

>  <ALOGPS_LOGS>
-2.11

>  <JCHEM_MDDR_LIKE_RULE>
0

>  <JCHEM_NEUTRAL_CHARGE>
1

>  <JCHEM_NUMBER_OF_RINGS>
0

>  <JCHEM_PHYSIOLOGICAL_CHARGE>
1

>  <JCHEM_PKA_STRONGEST_ACIDIC>
2.482201051406843

>  <JCHEM_PKA_STRONGEST_BASIC>
12.638037687436542

>  <JCHEM_POLAR_SURFACE_AREA>
111.23000000000002

>  <JCHEM_REFRACTIVITY>
58.69770000000001

>  <JCHEM_ROTATABLE_BOND_COUNT>
5

>  <JCHEM_RULE_OF_FIVE>
1

>  <ALOGPS_SOLUBILITY>
1.45e+00 g/l

>  <JCHEM_TRADITIONAL_IUPAC>
biotin

>  <JCHEM_VEBER_RULE>
0

>  <DRUGBANK_ID>
DB11815

>  <DRUG_GROUPS>
approved; investigational

>  <GENERIC_NAME>
Tilarginine

>  <SYNONYMS>
L-Monomethylarginine; L-Ng-monomethyl Arginine; L-NMMA; N-Methylarginine; N-Monomethyl-L-arginine; N(G)-Methylarginine; N(G)-Monomethyl-L-arginine; N5-(Methylamidino)-L-ornithine; NG-Monomethyl-L-arginine; omega-N-Methylarginine; omega-N-Monomethylarginine; Targinine; Tilarginine

>  <SALTS>
Tilarginine acetate; Tilarginine citrate; Tilarginine hydrochloride

$$$$

 OpenBabel05042401512D

 37 40  0  0  0  0  0  0  0  0999 V2000
   -1.4604    1.7103    0.0000 C   0  0  0  0  0  0  0  0  0  0  0  0
   -1.2054    0.9256    0.0000 C   0  0  0  0  0  0  0  0  0  0  0  0
   -0.3984    0.7541    0.0000 C   0  0  0  0  0  0  0  0  0  0  0  0
   -0.1435   -0.0305    0.0000 C   0  0  0  0  0  0  0  0  0  0  0  0
   -0.6284   -0.6979    0.0000 C   0  0  0  0  0  0  0  0  0  0  0  0
   -0.1435   -1.3654    0.0000 N   0  0  0  0  0  0  0  0  0  0  0  0
    0.6411   -1.1104    0.0000 C   0  0  0  0  0  0  0  0  0  0  0  0
    0.6411   -0.2854    0.0000 C   0  0  0  0  0  0  0  0  0  0  0  0
    1.3556    0.1271    0.0000 N   0  0  0  0  0  0  0  0  0  0  0  0
    2.0701   -0.2854    0.0000 C   0  0  0  0  0  0  0  0  0  0  0  0
    2.0701   -1.1104    0.0000 N   0  0  0  0  0  0  0  0  0  0  0  0
    1.3556   -1.5229    0.0000 C   0  0  0  0  0  0  0  0  0  0  0  0
    1.3556   -2.3479    0.0000 O   0  0  0  0  0  0  0  0  0  0  0  0
    2.7845    0.1271    0.0000 C   0  0  0  0  0  0  0  0  0  0  0  0
    2.7845    0.9521    0.0000 C   0  0  0  0  0  0  0  0  0  0  0  0
    3.4990    1.3646    0.0000 C   0  0  0  0  0  0  0  0  0  0  0  0
    4.2135    0.9521    0.0000 C   0  0  0  0  0  0  0  0  0  0  0  0
    4.2135    0.1271    0.0000 C   0  0  0  0  0  0  0  0  0  0  0  0
    3.4990   -0.2854    0.0000 C   0  0  0  0  0  0  0  0  0  0  0  0
    3.4990   -1.1104    0.0000 O   0  0  0  0  0  0  0  0  0  0  0  0
    2.7845   -1.5229    0.0000 C   0  0  0  0  0  0  0  0  0  0  0  0
    2.7845   -2.3479    0.0000 C   0  0  0  0  0  0  0  0  0  0  0  0
    2.0701   -2.7604    0.0000 C   0  0  0  0  0  0  0  0  0  0  0  0
    3.4990    2.1896    0.0000 S   0  0  0  0  0  0  0  0  0  0  0  0
    4.3240    2.1896    0.0000 O   0  0  0  0  0  0  0  0  0  0  0  0
    2.6740    2.1896    0.0000 O   0  0  0  0  0  0  0  0  0  0  0  0
    3.4990    3.0146    0.0000 N   0  0  0  0  0  0  0  0  0  0  0  0
    2.7845    3.4271    0.0000 C   0  0  0  0  0  0  0  0  0  0  0  0
    2.7845    4.2521    0.0000 C   0  0  0  0  0  0  0  0  0  0  0  0
    3.4990    4.6646    0.0000 N   0  0  0  0  0  0  0  0  0  0  0  0
    4.2135    4.2521    0.0000 C   0  0  0  0  0  0  0  0  0  0  0  0
    4.2135    3.4271    0.0000 C   0  0  0  0  0  0  0  0  0  0  0  0
    3.4990    5.4896    0.0000 C   0  0  0  0  0  0  0  0  0  0  0  0
    4.2135    5.9021    0.0000 C   0  0  0  0  0  0  0  0  0  0  0  0
    4.2135    6.7271    0.0000 O   0  0  0  0  0  0  0  0  0  0  0  0
   -0.3984   -2.1500    0.0000 C   0  0  0  0  0  0  0  0  0  0  0  0
    0.1536   -2.7631    0.0000 C   0  0  0  0  0  0  0  0  0  0  0  0
  1  2  1  0  0  0  0
  2  3  1  0  0  0  0
  3  4  1  0  0  0  0
  4  5  2  0  0  0  0
  4  8  1  0  0  0  0
  5  6  1  0  0  0  0
  6  7  1  0  0  0  0
  6 36  1  0  0  0  0
  7  8  2  0  0  0  0
  7 12  1  0  0  0  0
  8  9  1  0  0  0  0
  9 10  2  0  0  0  0
 10 11  1  0  0  0  0
 10 14  1  0  0  0  0
 11 12  1  0  0  0  0
 12 13  2  0  0  0  0
 14 15  2  0  0  0  0
 14 19  1  0  0  0  0
 15 16  1  0  0  0  0
 16 17  2  0  0  0  0
 16 24  1  0  0  0  0
 17 18  1  0  0  0  0
 18 19  2  0  0  0  0
 19 20  1  0  0  0  0
 20 21  1  0  0  0  0
 21 22  1  0  0  0  0
 22 23  1  0  0  0  0
 24 25  2  0  0  0  0
 24 26  2  0  0  0  0
 24 27  1  0  0  0  0
 27 28  1  0  0  0  0
 27 32  1  0  0  0  0
 28 29  1  0  0  0  0
 29 30  1  0  0  0  0
 30 31  1  0  0  0  0
 30 33  1  0  0  0  0
 31 32  1  0  0  0  0
 33 34  1  0  0  0  0
 34 35  1  0  0  0  0
 36 37  1  0  0  0  0
M  END
>  <DATABASE_ID>
DB11792

>  <DATABASE_NAME>
drugbank

>  <SMILES>
CCCOC1=CC=C(C=C1C1=NC2=C(N(CC)C=C2CCC)C(=O)N1)S(=O)(=O)N1CCN(CCO)CC1

>  <INCHI_IDENTIFIER>
InChI=1S/C26H37N5O5S/c1-4-7-19-18-30(6-3)24-23(19)27-25(28-26(24)33)21-17-20(8-9-22(21)36-16-5-2)37(34,35)31-12-10-29(11-13-31)14-15-32/h8-9,17-18,32H,4-7,10-16H2,1-3H3,(H,27,28,33)

>  <INCHI_KEY>
MIJFNYMSCFYZNY-UHFFFAOYSA-N

>  <FORMULA>
C26H37N5O5S

>  <MOLECULAR_WEIGHT>
531.67

>  <EXACT_MASS>
531.251540485

>  <JCHEM_ACCEPTOR_COUNT>
7

>  <JCHEM_ATOM_COUNT>
74

>  <JCHEM_AVERAGE_POLARIZABILITY>
57.74862575668062

>  <JCHEM_BIOAVAILABILITY>
1

>  <JCHEM_DONOR_COUNT>
2

>  <JCHEM_FORMAL_CHARGE>
0

>  <JCHEM_GHOSE_FILTER>
0

>  <JCHEM_IUPAC>
5-ethyl-2-(5-{[4-(2-hydroxyethyl)piperazin-1-yl]sulfonyl}-2-propoxyphenyl)-7-propyl-3H,4H,5H-pyrrolo[3,2-d]pyrimidin-4-one

>  <ALOGPS_LOGP>
2.85

>  <JCHEM_LOGP>
2.4420465996211034

>  <ALOGPS_LOGS>
-3.47

>  <JCHEM_MDDR_LIKE_RULE>
1

>  <JCHEM_NUMBER_OF_RINGS>
4

>  <JCHEM_PHYSIOLOGICAL_CHARGE>
0

>  <JCHEM_PKA>
15.593095519035643

>  <JCHEM_PKA_STRONGEST_ACIDIC>
7.685300630811118

>  <JCHEM_PKA_STRONGEST_BASIC>
5.825892946215912

>  <JCHEM_POLAR_SURFACE_AREA>
116.46999999999998

>  <JCHEM_REFRACTIVITY>
146.61469999999997

>  <JCHEM_ROTATABLE_BOND_COUNT>
10

>  <JCHEM_RULE_OF_FIVE>
0

>  <ALOGPS_SOLUBILITY>
1.81e-01 g/l

>  <JCHEM_TRADITIONAL_IUPAC>
mirodenafil

>  <JCHEM_VEBER_RULE>
0

>  <DRUGBANK_ID>
DB11792

>  <DRUG_GROUPS>
investigational

>  <GENERIC_NAME>
Mirodenafil

>  <SYNONYMS>
Mirodenafil

$$$$

 OpenBabel05042401512D

 21 24  0  0  1  0  0  0  0  0999 V2000
   -6.8343    1.0273    0.0000 C   0  0  0  0  0  0  0  0  0  0  0  0
   -6.4218    1.7418    0.0000 C   0  0  0  0  0  0  0  0  0  0  0  0
   -5.5968    1.7418    0.0000 C   0  0  0  0  0  0  0  0  0  0  0  0
   -5.0448    2.3549    0.0000 C   0  0  0  0  0  0  0  0  0  0  0  0
   -4.2911    2.0193    0.0000 C   0  0  0  0  0  0  0  0  0  0  0  0
   -4.3774    1.1988    0.0000 S   0  0  0  0  0  0  0  0  0  0  0  0
   -5.1843    1.0273    0.0000 C   0  0  0  0  0  0  0  0  0  0  0  0
   -5.5968    0.3128    0.0000 C   0  0  0  0  0  0  0  0  0  0  0  0
   -6.4218    0.3128    0.0000 C   0  0  0  0  0  0  0  0  0  0  0  0
   -5.1843   -0.4017    0.0000 Cl  0  0  0  0  0  0  0  0  0  0  0  0
   -3.5767    2.4318    0.0000 C   0  0  0  0  0  0  0  0  0  0  0  0
   -2.8622    2.0193    0.0000 O   0  0  0  0  0  0  0  0  0  0  0  0
   -3.5767    3.2568    0.0000 N   0  0  0  0  0  0  0  0  0  0  0  0
   -2.8622    3.6693    0.0000 C   0  0  1  0  0  0  0  0  0  0  0  0
   -2.8622    4.4943    0.0000 C   0  0  0  0  0  0  0  0  0  0  0  0
   -2.1477    4.9068    0.0000 N   0  0  3  0  0  0  0  0  0  0  0  0
   -1.4332    4.4943    0.0000 C   0  0  0  0  0  0  0  0  0  0  0  0
   -1.4332    3.6693    0.0000 C   0  0  0  0  0  0  0  0  0  0  0  0
   -2.1477    3.2568    0.0000 C   0  0  3  0  0  0  0  0  0  0  0  0
   -2.0102    3.8068    0.0000 C   0  0  0  0  0  0  0  0  0  0  0  0
   -2.0102    4.3568    0.0000 C   0  0  0  0  0  0  0  0  0  0  0  0
  1  2  1  0  0  0  0
  1  9  2  0  0  0  0
  2  3  2  0  0  0  0
  3  4  1  0  0  0  0
  3  7  1  0  0  0  0
  4  5  2  0  0  0  0
  5  6  1  0  0  0  0
  5 11  1  0  0  0  0
  6  7  1  0  0  0  0
  7  8  2  0  0  0  0
  8  9  1  0  0  0  0
  8 10  1  0  0  0  0
 11 12  2  0  0  0  0
 11 13  1  0  0  0  0
 14 13  1  1  0  0  0
 14 15  1  0  0  0  0
 14 19  1  0  0  0  0
 15 16  1  0  0  0  0
 16 17  1  0  0  0  0
 16 21  1  0  0  0  0
 17 18  1  0  0  0  0
 18 19  1  0  0  0  0
 19 20  1  0  0  0  0
 20 21  1  0  0  0  0
M  END
>  <DATABASE_ID>
DB11726

>  <DATABASE_NAME>
drugbank

>  <SMILES>
ClC1=C2SC(=CC2=CC=C1)C(=O)N[C@H]1CN2CCC1CC2

>  <INCHI_IDENTIFIER>
InChI=1S/C16H17ClN2OS/c17-12-3-1-2-11-8-14(21-15(11)12)16(20)18-13-9-19-6-4-10(13)5-7-19/h1-3,8,10,13H,4-7,9H2,(H,18,20)/t13-/m0/s1

>  <INCHI_KEY>
SSRDSYXGYPJKRR-ZDUSSCGKSA-N

>  <FORMULA>
C16H17ClN2OS

>  <MOLECULAR_WEIGHT>
320.84

>  <EXACT_MASS>
320.075012

>  <JCHEM_ACCEPTOR_COUNT>
2

>  <JCHEM_ATOM_COUNT>
38

>  <JCHEM_AVERAGE_POLARIZABILITY>
33.79362868295045

>  <JCHEM_BIOAVAILABILITY>
1

>  <JCHEM_DONOR_COUNT>
1

>  <JCHEM_FORMAL_CHARGE>
0

>  <JCHEM_GHOSE_FILTER>
1

>  <JCHEM_IUPAC>
N-[(3R)-1-azabicyclo[2.2.2]octan-3-yl]-7-chloro-1-benzothiophene-2-carboxamide

>  <ALOGPS_LOGP>
3.33

>  <JCHEM_LOGP>
3.035720071

>  <ALOGPS_LOGS>
-4.57

>  <JCHEM_MDDR_LIKE_RULE>
0

>  <JCHEM_NUMBER_OF_RINGS>
4

>  <JCHEM_PHYSIOLOGICAL_CHARGE>
1

>  <JCHEM_PKA_STRONGEST_ACIDIC>
14.41992891035025

>  <JCHEM_PKA_STRONGEST_BASIC>
7.277528906098705

>  <JCHEM_POLAR_SURFACE_AREA>
32.34

>  <JCHEM_REFRACTIVITY>
85.9324

>  <JCHEM_ROTATABLE_BOND_COUNT>
2

>  <JCHEM_RULE_OF_FIVE>
1

>  <ALOGPS_SOLUBILITY>
8.72e-03 g/l

>  <JCHEM_TRADITIONAL_IUPAC>
encenicline

>  <JCHEM_VEBER_RULE>
1

>  <DRUGBANK_ID>
DB11726

>  <SECONDARY_ACCESSION_NUMBERS>
DB06341

>  <DRUG_GROUPS>
investigational

>  <GENERIC_NAME>
Encenicline

>  <SYNONYMS>
Encenicline

>  <SALTS>
Encenicline hydrochloride

$$$$

 OpenBabel05042401512D

 28 31  0  0  1  0  0  0  0  0999 V2000
    3.3523    1.9354    0.0000 C   0  0  0  0  0  0  0  0  0  0  0  0
    3.3523    1.1104    0.0000 C   0  0  0  0  0  0  0  0  0  0  0  0
    2.6378    0.6979    0.0000 C   0  0  0  0  0  0  0  0  0  0  0  0
    1.9233    1.1104    0.0000 C   0  0  0  0  0  0  0  0  0  0  0  0
    1.9233    1.9354    0.0000 C   0  0  0  0  0  0  0  0  0  0  0  0
    2.6378    2.3479    0.0000 C   0  0  0  0  0  0  0  0  0  0  0  0
    1.1387    2.1904    0.0000 C   0  0  0  0  0  0  0  0  0  0  0  0
    0.6538    1.5229    0.0000 C   0  0  0  0  0  0  0  0  0  0  0  0
    1.1387    0.8555    0.0000 S   0  0  0  0  0  0  0  0  0  0  0  0
   -0.1712    1.5229    0.0000 C   0  0  0  0  0  0  0  0  0  0  0  0
   -0.5837    2.2374    0.0000 C   0  0  0  0  0  0  0  0  0  0  0  0
   -1.4087    2.2374    0.0000 C   0  0  0  0  0  0  0  0  0  0  0  0
   -1.8212    2.9519    0.0000 C   0  0  0  0  0  0  0  0  0  0  0  0
   -1.4087    3.6664    0.0000 C   0  0  0  0  0  0  0  0  0  0  0  0
   -0.5837    3.6664    0.0000 C   0  0  0  0  0  0  0  0  0  0  0  0
   -0.1712    2.9519    0.0000 C   0  0  0  0  0  0  0  0  0  0  0  0
    0.6538    2.9519    0.0000 F   0  0  0  0  0  0  0  0  0  0  0  0
   -2.6462    2.9519    0.0000 C   0  0  1  0  0  0  0  0  0  0  0  0
   -3.0587    2.2374    0.0000 C   0  0  1  0  0  0  0  0  0  0  0  0
   -3.8837    2.2374    0.0000 C   0  0  2  0  0  0  0  0  0  0  0  0
   -4.2962    2.9519    0.0000 C   0  0  1  0  0  0  0  0  0  0  0  0
   -3.8837    3.6664    0.0000 C   0  0  2  0  0  0  0  0  0  0  0  0
   -3.0587    3.6664    0.0000 O   0  0  0  0  0  0  0  0  0  0  0  0
   -4.2962    4.3808    0.0000 C   0  0  0  0  0  0  0  0  0  0  0  0
   -5.1212    4.3808    0.0000 O   0  0  0  0  0  0  0  0  0  0  0  0
   -5.1212    2.9519    0.0000 O   0  0  0  0  0  0  0  0  0  0  0  0
   -4.2962    1.5229    0.0000 O   0  0  0  0  0  0  0  0  0  0  0  0
   -2.6462    1.5229    0.0000 O   0  0  0  0  0  0  0  0  0  0  0  0
  1  2  2  0  0  0  0
  1  6  1  0  0  0  0
  2  3  1  0  0  0  0
  3  4  2  0  0  0  0
  4  5  1  0  0  0  0
  4  9  1  0  0  0  0
  5  6  2  0  0  0  0
  5  7  1  0  0  0  0
  7  8  2  0  0  0  0
  8  9  1  0  0  0  0
  8 10  1  0  0  0  0
 10 11  1  0  0  0  0
 11 12  2  0  0  0  0
 11 16  1  0  0  0  0
 12 13  1  0  0  0  0
 13 14  2  0  0  0  0
 14 15  1  0  0  0  0
 15 16  2  0  0  0  0
 16 17  1  0  0  0  0
 18 13  1  1  0  0  0
 18 19  1  0  0  0  0
 18 23  1  0  0  0  0
 19 20  1  0  0  0  0
 19 28  1  6  0  0  0
 20 21  1  0  0  0  0
 20 27  1  1  0  0  0
 21 22  1  0  0  0  0
 21 26  1  6  0  0  0
 22 23  1  0  0  0  0
 22 24  1  1  0  0  0
 24 25  1  0  0  0  0
M  END
>  <DATABASE_ID>
DB11698

>  <DATABASE_NAME>
drugbank

>  <SMILES>
OC[C@H]1O[C@H]([C@H](O)[C@@H](O)[C@@H]1O)C1=CC=C(F)C(CC2=CC3=CC=CC=C3S2)=C1

>  <INCHI_IDENTIFIER>
InChI=1S/C21H21FO5S/c22-15-6-5-12(21-20(26)19(25)18(24)16(10-23)27-21)7-13(15)9-14-8-11-3-1-2-4-17(11)28-14/h1-8,16,18-21,23-26H,9-10H2/t16-,18-,19+,20-,21+/m1/s1

>  <INCHI_KEY>
AHFWIQIYAXSLBA-RQXATKFSSA-N

>  <FORMULA>
C21H21FO5S

>  <MOLECULAR_WEIGHT>
404.45

>  <EXACT_MASS>
404.109373113

>  <JCHEM_ACCEPTOR_COUNT>
5

>  <JCHEM_ATOM_COUNT>
49

>  <JCHEM_AVERAGE_POLARIZABILITY>
40.70251059735369

>  <JCHEM_BIOAVAILABILITY>
1

>  <JCHEM_DONOR_COUNT>
4

>  <JCHEM_FORMAL_CHARGE>
0

>  <JCHEM_GHOSE_FILTER>
1

>  <JCHEM_IUPAC>
(2S,3R,4R,5S,6R)-2-{3-[(1-benzothiophen-2-yl)methyl]-4-fluorophenyl}-6-(hydroxymethyl)oxane-3,4,5-triol

>  <ALOGPS_LOGP>
2.49

>  <JCHEM_LOGP>
2.4588850906666666

>  <ALOGPS_LOGS>
-4.13

>  <JCHEM_MDDR_LIKE_RULE>
0

>  <JCHEM_NUMBER_OF_RINGS>
4

>  <JCHEM_PHYSIOLOGICAL_CHARGE>
0

>  <JCHEM_PKA>
13.460978726426944

>  <JCHEM_PKA_STRONGEST_ACIDIC>
12.570859112601628

>  <JCHEM_PKA_STRONGEST_BASIC>
-2.9791903690608255

>  <JCHEM_POLAR_SURFACE_AREA>
90.15

>  <JCHEM_REFRACTIVITY>
102.40809999999996

>  <JCHEM_ROTATABLE_BOND_COUNT>
4

>  <JCHEM_RULE_OF_FIVE>
1

>  <ALOGPS_SOLUBILITY>
2.99e-02 g/l

>  <JCHEM_TRADITIONAL_IUPAC>
(2S,3R,4R,5S,6R)-2-[3-(1-benzothiophen-2-ylmethyl)-4-fluorophenyl]-6-(hydroxymethyl)oxane-3,4,5-triol

>  <JCHEM_VEBER_RULE>
0

>  <DRUGBANK_ID>
DB11698

>  <DRUG_GROUPS>
investigational

>  <GENERIC_NAME>
Ipragliflozin

>  <SYNONYMS>
Ipragliflozin

$$$$

 OpenBabel05042401512D

 27 29  0  0  1  0  0  0  0  0999 V2000
   -1.4887   -2.4357    0.0000 C   0  0  0  0  0  0  0  0  0  0  0  0
   -1.8242   -3.1893    0.0000 N   0  0  0  0  0  0  0  0  0  0  0  0
   -1.4117   -3.9038    0.0000 C   0  0  0  0  0  0  0  0  0  0  0  0
   -1.9638   -4.5169    0.0000 C   0  0  0  0  0  0  0  0  0  0  0  0
   -2.7174   -4.1813    0.0000 C   0  0  0  0  0  0  0  0  0  0  0  0
   -2.6312   -3.3609    0.0000 N   0  0  0  0  0  0  0  0  0  0  0  0
   -1.7922   -5.3239    0.0000 Cl  0  0  0  0  0  0  0  0  0  0  0  0
   -0.5912   -3.9900    0.0000 C   0  0  0  0  0  0  0  0  0  0  0  0
   -0.0392   -3.3769    0.0000 C   0  0  0  0  0  0  0  0  0  0  0  0
    0.7145   -3.7125    0.0000 C   0  0  0  0  0  0  0  0  0  0  0  0
    0.6282   -4.5330    0.0000 S   0  0  0  0  0  0  0  0  0  0  0  0
   -0.1787   -4.7045    0.0000 C   0  0  0  0  0  0  0  0  0  0  0  0
   -0.5143   -5.4582    0.0000 Cl  0  0  0  0  0  0  0  0  0  0  0  0
    1.4289   -3.3000    0.0000 C   0  0  0  0  0  0  0  0  0  0  0  0
    2.1434   -3.7125    0.0000 O   0  0  0  0  0  0  0  0  0  0  0  0
    1.4289   -2.4750    0.0000 N   0  0  0  0  0  0  0  0  0  0  0  0
    2.1434   -2.0625    0.0000 C   0  0  1  0  0  0  0  0  0  0  0  0
    2.1434   -1.2375    0.0000 C   0  0  0  0  0  0  0  0  0  0  0  0
    2.8579   -0.8250    0.0000 C   0  0  0  0  0  0  0  0  0  0  0  0
    2.8579    0.0000    0.0000 C   0  0  0  0  0  0  0  0  0  0  0  0
    3.5724    0.4125    0.0000 C   0  0  0  0  0  0  0  0  0  0  0  0
    4.2868    0.0000    0.0000 C   0  0  0  0  0  0  0  0  0  0  0  0
    4.2868   -0.8250    0.0000 C   0  0  0  0  0  0  0  0  0  0  0  0
    3.5724   -1.2375    0.0000 C   0  0  0  0  0  0  0  0  0  0  0  0
    5.0013   -1.2375    0.0000 F   0  0  0  0  0  0  0  0  0  0  0  0
    2.8579   -2.4750    0.0000 C   0  0  0  0  0  0  0  0  0  0  0  0
    2.8579   -3.3000    0.0000 N   0  0  0  0  0  0  0  0  0  0  0  0
  1  2  1  0  0  0  0
  2  3  1  0  0  0  0
  2  6  1  0  0  0  0
  3  4  2  0  0  0  0
  3  8  1  0  0  0  0
  4  5  1  0  0  0  0
  4  7  1  0  0  0  0
  5  6  2  0  0  0  0
  8  9  1  0  0  0  0
  8 12  2  0  0  0  0
  9 10  2  0  0  0  0
 10 11  1  0  0  0  0
 10 14  1  0  0  0  0
 11 12  1  0  0  0  0
 12 13  1  0  0  0  0
 14 15  2  0  0  0  0
 14 16  1  0  0  0  0
 17 16  1  1  0  0  0
 17 18  1  0  0  0  0
 17 26  1  0  0  0  0
 18 19  1  0  0  0  0
 19 20  2  0  0  0  0
 19 24  1  0  0  0  0
 20 21  1  0  0  0  0
 21 22  2  0  0  0  0
 22 23  1  0  0  0  0
 23 24  2  0  0  0  0
 23 25  1  0  0  0  0
 26 27  1  0  0  0  0
M  END
>  <DATABASE_ID>
DB11648

>  <DATABASE_NAME>
drugbank

>  <SMILES>
CN1N=CC(Cl)=C1C1=C(Cl)SC(=C1)C(=O)N[C@H](CN)CC1=CC=CC(F)=C1

>  <INCHI_IDENTIFIER>
InChI=1S/C18H17Cl2FN4OS/c1-25-16(14(19)9-23-25)13-7-15(27-17(13)20)18(26)24-12(8-22)6-10-3-2-4-11(21)5-10/h2-5,7,9,12H,6,8,22H2,1H3,(H,24,26)/t12-/m0/s1

>  <INCHI_KEY>
AFJRDFWMXUECEW-LBPRGKRZSA-N

>  <FORMULA>
C18H17Cl2FN4OS

>  <MOLECULAR_WEIGHT>
427.32

>  <EXACT_MASS>
426.0484159

>  <JCHEM_ACCEPTOR_COUNT>
3

>  <JCHEM_ATOM_COUNT>
44

>  <JCHEM_AVERAGE_POLARIZABILITY>
40.88994318824628

>  <JCHEM_BIOAVAILABILITY>
1

>  <JCHEM_DONOR_COUNT>
2

>  <JCHEM_FORMAL_CHARGE>
0

>  <JCHEM_GHOSE_FILTER>
1

>  <JCHEM_IUPAC>
N-[(2S)-1-amino-3-(3-fluorophenyl)propan-2-yl]-5-chloro-4-(4-chloro-1-methyl-1H-pyrazol-5-yl)thiophene-2-carboxamide

>  <ALOGPS_LOGP>
3.45

>  <JCHEM_LOGP>
3.748234936666667

>  <ALOGPS_LOGS>
-4.74

>  <JCHEM_MDDR_LIKE_RULE>
0

>  <JCHEM_NUMBER_OF_RINGS>
3

>  <JCHEM_PHYSIOLOGICAL_CHARGE>
1

>  <JCHEM_PKA_STRONGEST_ACIDIC>
13.791791766104424

>  <JCHEM_PKA_STRONGEST_BASIC>
9.024269371913343

>  <JCHEM_POLAR_SURFACE_AREA>
72.94

>  <JCHEM_REFRACTIVITY>
116.81359999999997

>  <JCHEM_ROTATABLE_BOND_COUNT>
5

>  <JCHEM_RULE_OF_FIVE>
1

>  <ALOGPS_SOLUBILITY>
7.81e-03 g/l

>  <JCHEM_TRADITIONAL_IUPAC>
N-[(2S)-1-amino-3-(3-fluorophenyl)propan-2-yl]-5-chloro-4-(4-chloro-2-methylpyrazol-3-yl)thiophene-2-carboxamide

>  <JCHEM_VEBER_RULE>
0

>  <DRUGBANK_ID>
DB11648

>  <DRUG_GROUPS>
investigational

>  <GENERIC_NAME>
Afuresertib

>  <SYNONYMS>
Afuresertib

>  <SALTS>
Afuresertib Hydrochloride

$$$$

 OpenBabel05042401512D

 17 16  0  0  0  0  0  0  0  0999 V2000
   -0.7144    1.4842    0.0000 S   0  0  0  0  0  0  0  0  0  0  0  0
    0.0000    0.2467    0.0000 O   0  0  0  0  0  0  0  0  0  0  0  0
    0.7144    1.4842    0.0000 S   0  0  0  0  0  0  0  0  0  0  0  0
    0.7144    0.6592    0.0000 P   0  0  0  0  0  0  0  0  0  0  0  0
   -0.7144    0.6592    0.0000 P   0  0  0  0  0  0  0  0  0  0  0  0
   -1.4289    0.2467    0.0000 O   0  0  0  0  0  0  0  0  0  0  0  0
   -2.1434    0.6592    0.0000 C   0  0  0  0  0  0  0  0  0  0  0  0
   -2.8579    0.2467    0.0000 C   0  0  0  0  0  0  0  0  0  0  0  0
    1.4289    0.2467    0.0000 O   0  0  0  0  0  0  0  0  0  0  0  0
    2.1433    0.6592    0.0000 C   0  0  0  0  0  0  0  0  0  0  0  0
    2.8579    0.2467    0.0000 C   0  0  0  0  0  0  0  0  0  0  0  0
    1.1269   -0.0552    0.0000 O   0  0  0  0  0  0  0  0  0  0  0  0
    0.7144   -0.7697    0.0000 C   0  0  0  0  0  0  0  0  0  0  0  0
    1.1269   -1.4842    0.0000 C   0  0  0  0  0  0  0  0  0  0  0  0
   -1.1269   -0.0552    0.0000 O   0  0  0  0  0  0  0  0  0  0  0  0
   -0.7144   -0.7697    0.0000 C   0  0  0  0  0  0  0  0  0  0  0  0
   -1.1269   -1.4842    0.0000 C   0  0  0  0  0  0  0  0  0  0  0  0
  2  4  1  0  0  0  0
  4  3  2  0  0  0  0
  4  9  1  0  0  0  0
  4 12  1  0  0  0  0
  5  1  2  0  0  0  0
  5  2  1  0  0  0  0
  5  6  1  0  0  0  0
  5 15  1  0  0  0  0
  6  7  1  0  0  0  0
  7  8  1  0  0  0  0
  9 10  1  0  0  0  0
 10 11  1  0  0  0  0
 12 13  1  0  0  0  0
 13 14  1  0  0  0  0
 15 16  1  0  0  0  0
 16 17  1  0  0  0  0
M  END
>  <DATABASE_ID>
DB11497

>  <DATABASE_NAME>
drugbank

>  <SMILES>
CCOP(=S)(OCC)OP(=S)(OCC)OCC

>  <INCHI_IDENTIFIER>
InChI=1S/C8H20O5P2S2/c1-5-9-14(16,10-6-2)13-15(17,11-7-3)12-8-4/h5-8H2,1-4H3

>  <INCHI_KEY>
XIUROWKZWPIAIB-UHFFFAOYSA-N

>  <FORMULA>
C8H20O5P2S2

>  <MOLECULAR_WEIGHT>
322.31

>  <EXACT_MASS>
322.022740088

>  <JCHEM_ACCEPTOR_COUNT>
0

>  <JCHEM_ATOM_COUNT>
37

>  <JCHEM_AVERAGE_NEUTRAL_MICROSPECIES_CHARGE>
0.0

>  <JCHEM_AVERAGE_POLARIZABILITY>
30.344192547111994

>  <JCHEM_BIOAVAILABILITY>
1

>  <JCHEM_DONOR_COUNT>
0

>  <JCHEM_FORMAL_CHARGE>
0

>  <JCHEM_GHOSE_FILTER>
1

>  <JCHEM_IUPAC>
O,O-diethyl {[diethoxy(sulfanylidene)-lambda5-phosphanyl]oxy}phosphonothioate

>  <ALOGPS_LOGP>
4.43

>  <JCHEM_LOGP>
3.276911576333333

>  <ALOGPS_LOGS>
-4.05

>  <JCHEM_MDDR_LIKE_RULE>
0

>  <JCHEM_NEUTRAL_CHARGE>
0

>  <JCHEM_NUMBER_OF_RINGS>
0

>  <JCHEM_PHYSIOLOGICAL_CHARGE>
0

>  <JCHEM_POLAR_SURFACE_AREA>
46.150000000000006

>  <JCHEM_REFRACTIVITY>
78.43020000000001

>  <JCHEM_ROTATABLE_BOND_COUNT>
10

>  <JCHEM_RULE_OF_FIVE>
1

>  <ALOGPS_SOLUBILITY>
2.88e-02 g/l

>  <JCHEM_TRADITIONAL_IUPAC>
1-(4-fluorophenyl)-4-[(10R,15S)-4-methyl-1,4,12-triazatetracyclo[7.6.1.0^{5,16}.0^{10,15}]hexadeca-5(16),6,8-trien-12-yl]butan-1-one

>  <JCHEM_VEBER_RULE>
0

>  <DRUGBANK_ID>
DB11497

>  <DRUG_GROUPS>
experimental; vet_approved

>  <GENERIC_NAME>
Sulfotep

>  <SYNONYMS>
Bis(O,O-diethylphosphorothionic) anhydride; Dithion; Dithiophos; O,O,O,O-Tetraethyl dithiopyrophosphate; Sulfotepp; Sulphotepp; TEDP; TEDTP; Tetraethyl dithiopyrophosphate; Thiodiphosphate, tetraethyl ester

$$$$

 OpenBabel05042401512D

 18 19  0  0  0  0  0  0  0  0999 V2000
    1.0557    0.9694    0.0000 S   0  0  0  0  0  0  0  0  0  0  0  0
   -1.8722    1.1270    0.0000 O   0  0  0  0  0  0  0  0  0  0  0  0
    3.6031   -0.4125    0.0000 O   0  0  0  0  0  0  0  0  0  0  0  0
    2.3656   -1.1270    0.0000 O   0  0  0  0  0  0  0  0  0  0  0  0
    1.0557   -0.3655    0.0000 N   0  0  0  0  0  0  0  0  0  0  0  0
    2.3656    0.3020    0.0000 N   0  0  0  0  0  0  0  0  0  0  0  0
    0.2711    0.7145    0.0000 C   0  0  0  0  0  0  0  0  0  0  0  0
    0.2711   -0.1105    0.0000 C   0  0  0  0  0  0  0  0  0  0  0  0
    1.5406    0.3020    0.0000 C   0  0  0  0  0  0  0  0  0  0  0  0
   -0.4433    1.1270    0.0000 C   0  0  0  0  0  0  0  0  0  0  0  0
   -1.1577    0.7145    0.0000 C   0  0  0  0  0  0  0  0  0  0  0  0
   -0.4433   -0.5230    0.0000 C   0  0  0  0  0  0  0  0  0  0  0  0
   -1.1577   -0.1105    0.0000 C   0  0  0  0  0  0  0  0  0  0  0  0
    2.7781   -0.4125    0.0000 C   0  0  0  0  0  0  0  0  0  0  0  0
   -2.5867    0.7145    0.0000 C   0  0  0  0  0  0  0  0  0  0  0  0
   -3.3011    1.1270    0.0000 C   0  0  0  0  0  0  0  0  0  0  0  0
    4.0156   -1.1270    0.0000 C   0  0  0  0  0  0  0  0  0  0  0  0
   -4.0156    0.7145    0.0000 C   0  0  0  0  0  0  0  0  0  0  0  0
  1  7  1  0  0  0  0
  1  9  1  0  0  0  0
  2 11  1  0  0  0  0
  2 15  1  0  0  0  0
  3 14  1  0  0  0  0
  3 17  1  0  0  0  0
  4 14  2  0  0  0  0
  5  8  1  0  0  0  0
  5  9  2  0  0  0  0
  6  9  1  0  0  0  0
  6 14  1  0  0  0  0
  7  8  1  0  0  0  0
  7 10  2  0  0  0  0
  8 12  2  0  0  0  0
 10 11  1  0  0  0  0
 11 13  2  0  0  0  0
 12 13  1  0  0  0  0
 15 16  1  0  0  0  0
 16 18  1  0  0  0  0
M  END
>  <DATABASE_ID>
DB11472

>  <DATABASE_NAME>
drugbank

>  <SMILES>
CCCOC1=CC=C2N=C(NC(=O)OC)SC2=C1

>  <INCHI_IDENTIFIER>
InChI=1S/C12H14N2O3S/c1-3-6-17-8-4-5-9-10(7-8)18-11(13-9)14-12(15)16-2/h4-5,7H,3,6H2,1-2H3,(H,13,14,15)

>  <INCHI_KEY>
HLLICFJUWSZHRJ-UHFFFAOYSA-N

>  <FORMULA>
C12H14N2O3S

>  <MOLECULAR_WEIGHT>
266.32

>  <EXACT_MASS>
266.072513493

>  <JCHEM_ACCEPTOR_COUNT>
4

>  <JCHEM_ATOM_COUNT>
32

>  <JCHEM_AVERAGE_POLARIZABILITY>
28.249428756421516

>  <JCHEM_BIOAVAILABILITY>
1

>  <JCHEM_DONOR_COUNT>
1

>  <JCHEM_FORMAL_CHARGE>
0

>  <JCHEM_GHOSE_FILTER>
1

>  <JCHEM_IUPAC>
methyl N-(6-propoxy-1,3-benzothiazol-2-yl)carbamate

>  <ALOGPS_LOGP>
2.93

>  <JCHEM_LOGP>
3.3763823576666665

>  <ALOGPS_LOGS>
-3.82

>  <JCHEM_MDDR_LIKE_RULE>
0

>  <JCHEM_NUMBER_OF_RINGS>
2

>  <JCHEM_PHYSIOLOGICAL_CHARGE>
0

>  <JCHEM_PKA_STRONGEST_ACIDIC>
12.105300652496034

>  <JCHEM_PKA_STRONGEST_BASIC>
1.3618126053855821

>  <JCHEM_POLAR_SURFACE_AREA>
60.45

>  <JCHEM_REFRACTIVITY>
68.82440000000001

>  <JCHEM_ROTATABLE_BOND_COUNT>
5

>  <JCHEM_RULE_OF_FIVE>
1

>  <ALOGPS_SOLUBILITY>
4.03e-02 g/l

>  <JCHEM_TRADITIONAL_IUPAC>
(2S,3S,4S,5R,6R)-3,4,5-trihydroxy-6-{[(1S,5R,13R,14S,17R)-10-hydroxy-4-methyl-12-oxa-4-azapentacyclo[9.6.1.0^{1,13}.0^{5,17}.0^{7,18}]octadeca-7(18),8,10,15-tetraen-14-yl]oxy}oxane-2-carboxylic acid

>  <JCHEM_VEBER_RULE>
0

>  <DRUGBANK_ID>
DB11472

>  <DRUG_GROUPS>
vet_approved

>  <GENERIC_NAME>
Tioxidazole

>  <SYNONYMS>
Tioxidazol; Tioxidazole; Tioxidazolum

>  <INTERNATIONAL_BRANDS>
Tiox (Veterinary)

$$$$

 OpenBabel05042401512D

 30 29  0  0  0  0  0  0  0  0999 V2000
   -8.1076    0.2162    0.0000 C   0  0  0  0  0  0  0  0  0  0  0  0
   -7.4048   -0.2161    0.0000 C   0  0  0  0  0  0  0  0  0  0  0  0
   -6.7023    0.2162    0.0000 C   0  0  0  0  0  0  0  0  0  0  0  0
   -5.9995   -0.2161    0.0000 C   0  0  0  0  0  0  0  0  0  0  0  0
   -5.2969    0.2162    0.0000 C   0  0  0  0  0  0  0  0  0  0  0  0
   -4.5942   -0.2161    0.0000 C   0  0  0  0  0  0  0  0  0  0  0  0
   -3.8916    0.2162    0.0000 C   0  0  0  0  0  0  0  0  0  0  0  0
   -3.1889   -0.2161    0.0000 C   0  0  0  0  0  0  0  0  0  0  0  0
   -2.4863    0.2162    0.0000 C   0  0  0  0  0  0  0  0  0  0  0  0
   -1.7836   -0.2161    0.0000 C   0  0  0  0  0  0  0  0  0  0  0  0
   -1.0810    0.2162    0.0000 C   0  0  0  0  0  0  0  0  0  0  0  0
   -0.3242   -0.2161    0.0000 C   0  0  0  0  0  0  0  0  0  0  0  0
    0.3783    0.2162    0.0000 C   0  0  0  0  0  0  0  0  0  0  0  0
    1.0810   -0.2161    0.0000 C   0  0  0  0  0  0  0  0  0  0  0  0
    1.7836    0.2162    0.0000 C   0  0  0  0  0  0  0  0  0  0  0  0
    2.4863   -0.2161    0.0000 C   0  0  0  0  0  0  0  0  0  0  0  0
    3.1889    0.2162    0.0000 C   0  0  0  0  0  0  0  0  0  0  0  0
    3.8916   -0.2161    0.0000 C   0  0  0  0  0  0  0  0  0  0  0  0
    4.5942    0.2162    0.0000 C   0  0  0  0  0  0  0  0  0  0  0  0
    5.2969   -0.2161    0.0000 C   0  0  0  0  0  0  0  0  0  0  0  0
    5.9994    0.2162    0.0000 C   0  0  0  0  0  0  0  0  0  0  0  0
    6.7022   -0.2161    0.0000 C   0  0  0  0  0  0  0  0  0  0  0  0
    7.4047    0.2162    0.0000 C   0  0  0  0  0  0  0  0  0  0  0  0
    8.1076   -0.2161    0.0000 C   0  0  0  0  0  0  0  0  0  0  0  0
   -7.4048   -1.0269    0.0000 C   0  0  0  0  0  0  0  0  0  0  0  0
   -4.5942   -1.0269    0.0000 C   0  0  0  0  0  0  0  0  0  0  0  0
   -1.7836   -1.0269    0.0000 C   0  0  0  0  0  0  0  0  0  0  0  0
    1.7836    1.0269    0.0000 C   0  0  0  0  0  0  0  0  0  0  0  0
    4.5942    1.0269    0.0000 C   0  0  0  0  0  0  0  0  0  0  0  0
    7.4047    1.0269    0.0000 C   0  0  0  0  0  0  0  0  0  0  0  0
  2  1  1  0  0  0  0
  3  2  2  0  0  0  0
  4  3  1  0  0  0  0
  5  4  1  0  0  0  0
  6  5  1  0  0  0  0
  7  6  2  0  0  0  0
  8  7  1  0  0  0  0
  9  8  1  0  0  0  0
 10  9  1  0  0  0  0
 11 10  2  0  0  0  0
 12 11  1  0  0  0  0
 13 12  1  0  0  0  0
 14 13  1  0  0  0  0
 15 14  2  0  0  0  0
 16 15  1  0  0  0  0
 17 16  1  0  0  0  0
 18 17  1  0  0  0  0
 19 18  2  0  0  0  0
 20 19  1  0  0  0  0
 21 20  1  0  0  0  0
 22 21  1  0  0  0  0
 23 22  2  0  0  0  0
 24 23  1  0  0  0  0
 25  2  1  0  0  0  0
 26  6  1  0  0  0  0
 27 10  1  0  0  0  0
 28 15  1  0  0  0  0
 29 19  1  0  0  0  0
 30 23  1  0  0  0  0
M  END
>  <DATABASE_ID>
DB11460

>  <DATABASE_NAME>
drugbank

>  <SMILES>
CC(C)=CCC\C(C)=C\CC\C(C)=C\CC\C=C(/C)CC\C=C(/C)CCC=C(C)C

>  <INCHI_IDENTIFIER>
InChI=1S/C30H50/c1-25(2)15-11-19-29(7)23-13-21-27(5)17-9-10-18-28(6)22-14-24-30(8)20-12-16-26(3)4/h15-18,23-24H,9-14,19-22H2,1-8H3/b27-17+,28-18+,29-23+,30-24+

>  <INCHI_KEY>
YYGNTYWPHWGJRM-AAJYLUCBSA-N

>  <FORMULA>
C30H50

>  <MOLECULAR_WEIGHT>
410.73

>  <EXACT_MASS>
410.39125161

>  <JCHEM_ACCEPTOR_COUNT>
0

>  <JCHEM_ATOM_COUNT>
80

>  <JCHEM_AVERAGE_POLARIZABILITY>
56.16810415012681

>  <JCHEM_BIOAVAILABILITY>
0

>  <JCHEM_DONOR_COUNT>
0

>  <JCHEM_FORMAL_CHARGE>
0

>  <JCHEM_GHOSE_FILTER>
0

>  <JCHEM_IUPAC>
(6E,10E,14E,18E)-2,6,10,15,19,23-hexamethyltetracosa-2,6,10,14,18,22-hexaene

>  <ALOGPS_LOGP>
8.64

>  <JCHEM_LOGP>
10.422011552666666

>  <ALOGPS_LOGS>
-5.91

>  <JCHEM_MDDR_LIKE_RULE>
0

>  <JCHEM_NUMBER_OF_RINGS>
0

>  <JCHEM_PHYSIOLOGICAL_CHARGE>
0

>  <JCHEM_POLAR_SURFACE_AREA>
0.0

>  <JCHEM_REFRACTIVITY>
144.61780000000005

>  <JCHEM_ROTATABLE_BOND_COUNT>
15

>  <JCHEM_RULE_OF_FIVE>
0

>  <ALOGPS_SOLUBILITY>
5.02e-04 g/l

>  <JCHEM_TRADITIONAL_IUPAC>
(2S,3S,4S,5R,6R)-3,4,5-trihydroxy-6-{[(1S,5R,13R,14S,17R)-10-hydroxy-4-methyl-12-oxa-4-azapentacyclo[9.6.1.0^{1,13}.0^{5,17}.0^{7,18}]octadeca-7(18),8,10,15-tetraen-14-yl]oxy}oxane-2-carboxylic acid

>  <JCHEM_VEBER_RULE>
0

>  <DRUGBANK_ID>
DB11460

>  <DRUG_GROUPS>
approved; vet_approved

>  <GENERIC_NAME>
Squalene

>  <SYNONYMS>
(all-E)-2,6,10,15,19,23-hexamethyl-2,6,10,14,18,22-tetracosahexaene; (E,E,E,E)-Squalene; Spinacene; Squalene; Supraene

>  <PRODUCTS>
Arepanrix H5n1; Fluad Tetra

$$$$

 OpenBabel05042401512D

 19 20  0  0  0  0  0  0  0  0999 V2000
   -2.1232    0.9999    0.0000 C   0  0  0  0  0  0  0  0  0  0  0  0
   -0.6942    3.4749    0.0000 C   0  0  0  0  0  0  0  0  0  0  0  0
    3.3523    1.1104    0.0000 C   0  0  0  0  0  0  0  0  0  0  0  0
    3.3523    1.9354    0.0000 C   0  0  0  0  0  0  0  0  0  0  0  0
    2.6378    0.6979    0.0000 C   0  0  0  0  0  0  0  0  0  0  0  0
    2.6378    2.3479    0.0000 C   0  0  0  0  0  0  0  0  0  0  0  0
   -0.1712    1.5229    0.0000 C   0  0  0  0  0  0  0  0  0  0  0  0
    1.9233    1.1104    0.0000 C   0  0  0  0  0  0  0  0  0  0  0  0
    1.9233    1.9354    0.0000 C   0  0  0  0  0  0  0  0  0  0  0  0
    1.1387    0.8555    0.0000 C   0  0  0  0  0  0  0  0  0  0  0  0
    1.1387    2.1904    0.0000 C   0  0  0  0  0  0  0  0  0  0  0  0
    0.6538    1.5229    0.0000 N   0  0  0  0  0  0  0  0  0  0  0  0
    0.8838    0.0709    0.0000 O   0  0  0  0  0  0  0  0  0  0  0  0
    0.8838    2.9750    0.0000 O   0  0  0  0  0  0  0  0  0  0  0  0
   -1.4087    1.4124    0.0000 O   0  0  0  0  0  0  0  0  0  0  0  0
   -1.4087    3.0624    0.0000 O   0  0  0  0  0  0  0  0  0  0  0  0
   -1.4087    2.2374    0.0000 P   0  0  0  0  0  0  0  0  0  0  0  0
   -2.2337    2.2374    0.0000 S   0  0  0  0  0  0  0  0  0  0  0  0
   -0.5837    2.2374    0.0000 S   0  0  0  0  0  0  0  0  0  0  0  0
  4  3  2  0  0  0  0
  5  3  1  0  0  0  0
  6  4  1  0  0  0  0
  8  5  2  0  0  0  0
  9  6  2  0  0  0  0
  9  8  1  0  0  0  0
 10  8  1  0  0  0  0
 11  9  1  0  0  0  0
 12  7  1  0  0  0  0
 12 10  1  0  0  0  0
 12 11  1  0  0  0  0
 13 10  2  0  0  0  0
 14 11  2  0  0  0  0
 15  1  1  0  0  0  0
 16  2  1  0  0  0  0
 17 15  1  0  0  0  0
 17 16  1  0  0  0  0
 18 17  2  0  0  0  0
 19  7  1  0  0  0  0
 19 17  1  0  0  0  0
M  END
>  <DATABASE_ID>
DB11448

>  <DATABASE_NAME>
drugbank

>  <SMILES>
COP(=S)(OC)SCN1C(=O)C2=CC=CC=C2C1=O

>  <INCHI_IDENTIFIER>
InChI=1S/C11H12NO4PS2/c1-15-17(18,16-2)19-7-12-10(13)8-5-3-4-6-9(8)11(12)14/h3-6H,7H2,1-2H3

>  <INCHI_KEY>
LMNZTLDVJIUSHT-UHFFFAOYSA-N

>  <FORMULA>
C11H12NO4PS2

>  <MOLECULAR_WEIGHT>
317.31

>  <EXACT_MASS>
316.994537216

>  <JCHEM_ACCEPTOR_COUNT>
2

>  <JCHEM_ATOM_COUNT>
31

>  <JCHEM_AVERAGE_POLARIZABILITY>
30.051931087561076

>  <JCHEM_BIOAVAILABILITY>
1

>  <JCHEM_DONOR_COUNT>
0

>  <JCHEM_FORMAL_CHARGE>
0

>  <JCHEM_GHOSE_FILTER>
1

>  <JCHEM_IUPAC>
O,O-dimethyl {[(1,3-dioxo-2,3-dihydro-1H-isoindol-2-yl)methyl]sulfanyl}phosphonothioate

>  <ALOGPS_LOGP>
2.70

>  <JCHEM_LOGP>
2.1492087206666666

>  <ALOGPS_LOGS>
-3.85

>  <JCHEM_MDDR_LIKE_RULE>
0

>  <JCHEM_NUMBER_OF_RINGS>
2

>  <JCHEM_PHYSIOLOGICAL_CHARGE>
0

>  <JCHEM_PKA_STRONGEST_BASIC>
-7.105988523377711

>  <JCHEM_POLAR_SURFACE_AREA>
55.84

>  <JCHEM_REFRACTIVITY>
79.7718

>  <JCHEM_ROTATABLE_BOND_COUNT>
5

>  <JCHEM_RULE_OF_FIVE>
1

>  <ALOGPS_SOLUBILITY>
4.43e-02 g/l

>  <JCHEM_TRADITIONAL_IUPAC>
percolate

>  <JCHEM_VEBER_RULE>
0

>  <DRUGBANK_ID>
DB11448

>  <DRUG_GROUPS>
vet_approved

>  <GENERIC_NAME>
Phosmet

>  <SYNONYMS>
Decemthion; Fosmet; O,O-Dimethyl phthalimidomethyl phosphorodithioate; O,O-Dimethyl S-(phthalimidomethyl) dithiophosphate; O,O-Dimethyl S-phthalimidomethyl phosphorodithioate; PMP; S-((1,3-Dihydro-1,3-dioxo-2H-isoindol-2-yl)methyl)phosphorodithioic acid O,O-dimethyl ester; S-[(1,3-dioxo-1,3-dihydro-2H-isoindol-2-yl)methyl] O,O-dimethyl dithiophosphate

$$$$

 OpenBabel05042401512D

 25 27  0  0  1  0  0  0  0  0999 V2000
   -1.8001   -1.6502    0.0000 F   0  0  0  0  0  0  0  0  0  0  0  0
    1.0950    1.6551    0.0000 O   0  0  0  0  0  0  0  0  0  0  0  0
    1.0950    0.0000    0.0000 O   0  0  0  0  0  0  0  0  0  0  0  0
   -1.8001    1.6551    0.0000 O   0  0  0  0  0  0  0  0  0  0  0  0
    0.3499   -2.0652    0.0000 O   0  0  0  0  0  0  0  0  0  0  0  0
    2.5002    0.8300    0.0000 N   0  0  0  0  0  0  0  0  0  0  0  0
    0.3499    0.4150    0.0000 C   0  0  1  0  0  0  0  0  0  0  0  0
    1.0950    0.8300    0.0000 C   0  0  2  0  0  0  0  0  0  0  0  0
    0.3499   -0.4100    0.0000 C   0  0  0  0  0  0  0  0  0  0  0  0
   -0.3499    0.8300    0.0000 C   0  0  0  0  0  0  0  0  0  0  0  0
   -1.0550    0.4150    0.0000 C   0  0  0  0  0  0  0  0  0  0  0  0
    1.8001    0.4150    0.0000 C   0  0  0  0  0  0  0  0  0  0  0  0
   -0.3499   -0.8251    0.0000 C   0  0  0  0  0  0  0  0  0  0  0  0
    1.0950   -0.8251    0.0000 C   0  0  0  0  0  0  0  0  0  0  0  0
   -1.8001    0.8300    0.0000 C   0  0  0  0  0  0  0  0  0  0  0  0
   -1.0550   -0.4100    0.0000 C   0  0  0  0  0  0  0  0  0  0  0  0
    1.8001    2.0652    0.0000 C   0  0  0  0  0  0  0  0  0  0  0  0
   -1.8001   -0.8251    0.0000 C   0  0  0  0  0  0  0  0  0  0  0  0
    2.5002    1.6551    0.0000 C   0  0  0  0  0  0  0  0  0  0  0  0
   -2.5002    0.4150    0.0000 C   0  0  0  0  0  0  0  0  0  0  0  0
    1.0950   -1.6502    0.0000 C   0  0  0  0  0  0  0  0  0  0  0  0
   -0.3499   -1.6502    0.0000 C   0  0  0  0  0  0  0  0  0  0  0  0
   -2.5002   -0.4100    0.0000 C   0  0  0  0  0  0  0  0  0  0  0  0
   -1.0550    2.0652    0.0000 C   0  0  0  0  0  0  0  0  0  0  0  0
    0.3499    1.2401    0.0000 H   0  0  0  0  0  0  0  0  0  0  0  0
  1 18  1  0  0  0  0
  2  8  1  0  0  0  0
  2 17  1  0  0  0  0
  4 15  1  0  0  0  0
  4 24  1  0  0  0  0
  5 21  1  0  0  0  0
  5 22  1  0  0  0  0
  6 12  1  0  0  0  0
  6 19  1  0  0  0  0
  7  3  1  1  0  0  0
  7  8  1  0  0  0  0
  7  9  1  0  0  0  0
  7 10  1  0  0  0  0
  8 12  1  0  0  0  0
  8 25  1  6  0  0  0
  9 13  1  0  0  0  0
  9 14  1  0  0  0  0
 10 11  1  0  0  0  0
 11 15  2  0  0  0  0
 11 16  1  0  0  0  0
 13 22  1  0  0  0  0
 14 21  1  0  0  0  0
 15 20  1  0  0  0  0
 16 18  2  0  0  0  0
 17 19  1  0  0  0  0
 18 23  1  0  0  0  0
 20 23  2  0  0  0  0
M  END
>  <DATABASE_ID>
DB09184

>  <DATABASE_NAME>
drugbank

>  <SMILES>
[H][C@]1(CNCCO1)[C@@](O)(CC1=C(OC)C=CC(F)=C1)C1CCOCC1

>  <INCHI_IDENTIFIER>
InChI=1S/C18H26FNO4/c1-22-16-3-2-15(19)10-13(16)11-18(21,14-4-7-23-8-5-14)17-12-20-6-9-24-17/h2-3,10,14,17,20-21H,4-9,11-12H2,1H3/t17-,18+/m0/s1

>  <INCHI_KEY>
CPBHSHYQQLFAPW-ZWKOTPCHSA-N

>  <FORMULA>
C18H26FNO4

>  <MOLECULAR_WEIGHT>
339.407

>  <EXACT_MASS>
339.184586484

>  <JCHEM_ACCEPTOR_COUNT>
5

>  <JCHEM_ATOM_COUNT>
50

>  <JCHEM_AVERAGE_POLARIZABILITY>
35.19409348912119

>  <JCHEM_BIOAVAILABILITY>
1

>  <JCHEM_DONOR_COUNT>
2

>  <JCHEM_FORMAL_CHARGE>
0

>  <JCHEM_GHOSE_FILTER>
1

>  <JCHEM_IUPAC>
(1R)-2-(5-fluoro-2-methoxyphenyl)-1-[(2S)-morpholin-2-yl]-1-(oxan-4-yl)ethan-1-ol

>  <ALOGPS_LOGP>
1.42

>  <JCHEM_LOGP>
1.3617737563333334

>  <ALOGPS_LOGS>
-3.14

>  <JCHEM_MDDR_LIKE_RULE>
0

>  <JCHEM_NUMBER_OF_RINGS>
3

>  <JCHEM_PHYSIOLOGICAL_CHARGE>
1

>  <JCHEM_PKA_STRONGEST_ACIDIC>
13.399731560608068

>  <JCHEM_PKA_STRONGEST_BASIC>
8.137673210185092

>  <JCHEM_POLAR_SURFACE_AREA>
59.95

>  <JCHEM_REFRACTIVITY>
88.6309

>  <JCHEM_ROTATABLE_BOND_COUNT>
5

>  <JCHEM_RULE_OF_FIVE>
1

>  <ALOGPS_SOLUBILITY>
2.47e-01 g/l

>  <JCHEM_TRADITIONAL_IUPAC>
(1R)-2-(5-fluoro-2-methoxyphenyl)-1-[(2S)-morpholin-2-yl]-1-(oxan-4-yl)ethanol

>  <JCHEM_VEBER_RULE>
0

>  <DRUGBANK_ID>
DB09184

>  <DRUG_GROUPS>
investigational

>  <GENERIC_NAME>
Edivoxetine

>  <SYNONYMS>
Edivoxetine

>  <SALTS>
Edivoxetine hydrochloride

$$$$

 OpenBabel05042401512D

 33 33  0  0  1  0  0  0  0  0999 V2000
    0.7111    1.2376    0.0000 C   0  0  0  0  0  0  0  0  0  0  0  0
    1.4275    1.6500    0.0000 N   0  0  0  0  0  0  0  0  0  0  0  0
   -0.0041    1.6518    0.0000 O   0  0  0  0  0  0  0  0  0  0  0  0
    2.1385    1.2376    0.0000 C   0  0  0  0  0  0  0  0  0  0  0  0
    2.8524    1.6509    0.0000 C   0  0  3  0  0  0  0  0  0  0  0  0
    3.5664    1.2376    0.0000 C   0  0  0  0  0  0  0  0  0  0  0  0
    4.2803    1.6509    0.0000 O   0  0  0  0  0  0  0  0  0  0  0  0
    2.8524    2.4776    0.0000 O   0  0  0  0  0  0  0  0  0  0  0  0
    0.7105    0.4151    0.0000 C   0  0  0  0  0  0  0  0  0  0  0  0
    1.4287    0.0018    0.0000 C   0  0  0  0  0  0  0  0  0  0  0  0
    1.4287   -0.8248    0.0000 C   0  0  0  0  0  0  0  0  0  0  0  0
    0.7110   -1.2381    0.0000 C   0  0  0  0  0  0  0  0  0  0  0  0
   -0.0023   -0.8248    0.0000 C   0  0  0  0  0  0  0  0  0  0  0  0
   -0.0023    0.0018    0.0000 C   0  0  0  0  0  0  0  0  0  0  0  0
    0.7100   -2.0647    0.0000 I   0  0  0  0  0  0  0  0  0  0  0  0
   -0.7186    0.4146    0.0000 I   0  0  0  0  0  0  0  0  0  0  0  0
    2.1444    0.4154    0.0000 I   0  0  0  0  0  0  0  0  0  0  0  0
   -0.7186   -1.2376    0.0000 C   0  0  0  0  0  0  0  0  0  0  0  0
   -1.4312   -0.8206    0.0000 N   0  0  0  0  0  0  0  0  0  0  0  0
   -2.1451   -1.2340    0.0000 C   0  0  0  0  0  0  0  0  0  0  0  0
   -2.8591   -0.8206    0.0000 C   0  0  3  0  0  0  0  0  0  0  0  0
   -3.5730   -1.2340    0.0000 C   0  0  0  0  0  0  0  0  0  0  0  0
   -4.2870   -0.8206    0.0000 O   0  0  0  0  0  0  0  0  0  0  0  0
   -0.6800   -2.0643    0.0000 O   0  0  0  0  0  0  0  0  0  0  0  0
   -2.8591    0.0059    0.0000 O   0  0  0  0  0  0  0  0  0  0  0  0
    2.1426   -1.2381    0.0000 N   0  0  0  0  0  0  0  0  0  0  0  0
    2.8566   -0.8290    0.0000 C   0  0  0  0  0  0  0  0  0  0  0  0
    3.5705   -1.2423    0.0000 C   0  0  0  0  0  0  0  0  0  0  0  0
    2.1384   -2.0607    0.0000 C   0  0  0  0  0  0  0  0  0  0  0  0
    1.4205   -2.4704    0.0000 O   0  0  0  0  0  0  0  0  0  0  0  0
    2.8523   -2.4776    0.0000 C   0  0  0  0  0  0  0  0  0  0  0  0
    4.2870   -0.8298    0.0000 O   0  0  0  0  0  0  0  0  0  0  0  0
    3.5764   -2.0644    0.0000 O   0  0  0  0  0  0  0  0  0  0  0  0
  1  2  1  0  0  0  0
  1  3  2  0  0  0  0
  2  4  1  0  0  0  0
  4  5  1  0  0  0  0
  5  8  1  0  0  0  0
  5  6  1  0  0  0  0
  6  7  1  0  0  0  0
  9  1  1  0  0  0  0
  9 10  1  0  0  0  0
 10 17  1  0  0  0  0
 10 11  2  0  0  0  0
 11 12  1  0  0  0  0
 11 26  1  0  0  0  0
 12 13  2  0  0  0  0
 12 15  1  0  0  0  0
 13 18  1  0  0  0  0
 13 14  1  0  0  0  0
 14  9  2  0  0  0  0
 14 16  1  0  0  0  0
 18 19  1  0  0  0  0
 18 24  2  0  0  0  0
 19 20  1  0  0  0  0
 20 21  1  0  0  0  0
 21 25  1  0  0  0  0
 21 22  1  0  0  0  0
 22 23  1  0  0  0  0
 26 27  1  0  0  0  0
 26 29  1  0  0  0  0
 27 28  1  0  0  0  0
 28 32  1  0  0  0  0
 29 30  2  0  0  0  0
 29 31  1  0  0  0  0
 31 33  1  0  0  0  0
M  END
>  <DATABASE_ID>
DB09134

>  <DATABASE_NAME>
drugbank

>  <SMILES>
OCCN(C(=O)CO)C1=C(I)C(C(=O)NCC(O)CO)=C(I)C(C(=O)NCC(O)CO)=C1I

>  <INCHI_IDENTIFIER>
InChI=1S/C18H24I3N3O9/c19-13-11(17(32)22-3-8(29)5-26)14(20)16(24(1-2-25)10(31)7-28)15(21)12(13)18(33)23-4-9(30)6-27/h8-9,25-30H,1-7H2,(H,22,32)(H,23,33)

>  <INCHI_KEY>
AMDBBAQNWSUWGN-UHFFFAOYSA-N

>  <FORMULA>
C18H24I3N3O9

>  <MOLECULAR_WEIGHT>
807.115

>  <EXACT_MASS>
806.86466

>  <JCHEM_ACCEPTOR_COUNT>
9

>  <JCHEM_ATOM_COUNT>
57

>  <JCHEM_AVERAGE_POLARIZABILITY>
58.310495294120315

>  <JCHEM_BIOAVAILABILITY>
0

>  <JCHEM_DONOR_COUNT>
8

>  <JCHEM_FORMAL_CHARGE>
0

>  <JCHEM_GHOSE_FILTER>
0

>  <JCHEM_IUPAC>
N1,N3-bis(2,3-dihydroxypropyl)-5-[2-hydroxy-N-(2-hydroxyethyl)acetamido]-2,4,6-triiodobenzene-1,3-dicarboxamide

>  <ALOGPS_LOGP>
-2.98

>  <JCHEM_LOGP>
-2.1377355589999993

>  <ALOGPS_LOGS>
-2.89

>  <JCHEM_MDDR_LIKE_RULE>
0

>  <JCHEM_NUMBER_OF_RINGS>
1

>  <JCHEM_PHYSIOLOGICAL_CHARGE>
0

>  <JCHEM_PKA>
12.60745938995682

>  <JCHEM_PKA_STRONGEST_ACIDIC>
11.72407999261487

>  <JCHEM_PKA_STRONGEST_BASIC>
-2.5540463302144607

>  <JCHEM_POLAR_SURFACE_AREA>
199.89

>  <JCHEM_REFRACTIVITY>
144.57870000000005

>  <JCHEM_ROTATABLE_BOND_COUNT>
12

>  <JCHEM_RULE_OF_FIVE>
0

>  <ALOGPS_SOLUBILITY>
1.04e+00 g/l

>  <JCHEM_TRADITIONAL_IUPAC>
ioversol

>  <JCHEM_VEBER_RULE>
0

>  <DRUGBANK_ID>
DB09134

>  <DRUG_GROUPS>
approved

>  <GENERIC_NAME>
Ioversol

>  <SYNONYMS>
Ioversol; N,N'-Bis (2,3-dihydroxypropyl)-5-[N-(2-hydroxyethyl) -glycolamido] -2,4,6-triiodoisophthalamide; Optiray

>  <PRODUCTS>
Optiray 160; Optiray 160 (ultraject); Optiray 240; Optiray 240 (ultraject); Optiray 240 Inj 240mg/ml; Optiray 300; Optiray 300 (ultraject); Optiray 320; Optiray 320 (ultraject); Optiray 350; Optiray 350 (ultraject)

>  <INTERNATIONAL_BRANDS>
OPTIRAY 300; OPTIRAY 320; OPTIRAY 350

$$$$

 OpenBabel05042401512D

 37 40  0  0  1  0  0  0  0  0999 V2000
   20.0293  -25.3368    0.0000 C   0  0  0  0  0  0  0  0  0  0  0  0
   20.0293  -26.1618    0.0000 C   0  0  2  0  0  0  0  0  0  0  0  0
   20.7718  -26.5743    0.0000 C   0  0  2  0  0  0  0  0  0  0  0  0
   21.4731  -26.1618    0.0000 C   0  0  0  0  0  0  0  0  0  0  0  0
   21.4731  -25.3368    0.0000 C   0  0  0  0  0  0  0  0  0  0  0  0
   20.7718  -24.9243    0.0000 C   0  0  2  0  0  0  0  0  0  0  0  0
   20.7718  -24.0993    0.0000 C   0  0  0  0  0  0  0  0  0  0  0  0
   20.0293  -23.6868    0.0000 O   0  0  0  0  0  0  0  0  0  0  0  0
   21.4731  -23.6868    0.0000 N   0  0  0  0  0  0  0  0  0  0  0  0
   22.1743  -24.0993    0.0000 C   0  0  0  0  0  0  0  0  0  0  0  0
   21.4731  -22.8618    0.0000 C   0  0  0  0  0  0  0  0  0  0  0  0
   20.7718  -27.4406    0.0000 N   0  0  0  0  0  0  0  0  0  0  0  0
   21.4731  -27.8118    0.0000 C   0  0  0  0  0  0  0  0  0  0  0  0
   22.1743  -27.4406    0.0000 C   0  0  0  0  0  0  0  0  0  0  0  0
   21.4731  -28.6781    0.0000 O   0  0  0  0  0  0  0  0  0  0  0  0
   22.8756  -27.8118    0.0000 N   0  0  0  0  0  0  0  0  0  0  0  0
   22.1743  -26.5743    0.0000 O   0  0  0  0  0  0  0  0  0  0  0  0
   23.5768  -27.4406    0.0000 C   0  0  0  0  0  0  0  0  0  0  0  0
   24.2781  -27.8118    0.0000 N   0  0  0  0  0  0  0  0  0  0  0  0
   24.9793  -27.3993    0.0000 C   0  0  0  0  0  0  0  0  0  0  0  0
   24.9793  -26.5743    0.0000 C   0  0  0  0  0  0  0  0  0  0  0  0
   24.2781  -26.1618    0.0000 C   0  0  0  0  0  0  0  0  0  0  0  0
   23.5768  -26.6156    0.0000 C   0  0  0  0  0  0  0  0  0  0  0  0
   25.7218  -26.1618    0.0000 Cl  0  0  0  0  0  0  0  0  0  0  0  0
   19.3281  -26.5743    0.0000 N   0  0  0  0  0  0  0  0  0  0  0  0
   18.6268  -26.2031    0.0000 C   0  0  0  0  0  0  0  0  0  0  0  0
   17.9256  -26.5743    0.0000 C   0  0  0  0  0  0  0  0  0  0  0  0
   18.6268  -25.3368    0.0000 O   0  0  0  0  0  0  0  0  0  0  0  0
   17.1831  -26.2443    0.0000 N   0  0  0  0  0  0  0  0  0  0  0  0
   16.6056  -26.8631    0.0000 C   0  0  0  0  0  0  0  0  0  0  0  0
   17.0181  -27.5643    0.0000 C   0  0  0  0  0  0  0  0  0  0  0  0
   17.8431  -27.3993    0.0000 S   0  0  0  0  0  0  0  0  0  0  0  0
   15.7806  -26.8631    0.0000 C   0  0  0  0  0  0  0  0  0  0  0  0
   15.3681  -27.5643    0.0000 C   0  0  0  0  0  0  0  0  0  0  0  0
   15.7806  -28.2656    0.0000 N   0  0  0  0  0  0  0  0  0  0  0  0
   16.6056  -28.2656    0.0000 C   0  0  0  0  0  0  0  0  0  0  0  0
   15.3681  -29.0081    0.0000 C   0  0  0  0  0  0  0  0  0  0  0  0
  1  2  1  0  0  0  0
  1  6  1  0  0  0  0
  2  3  1  0  0  0  0
  2 25  1  6  0  0  0
  3  4  1  0  0  0  0
  3 12  1  6  0  0  0
  4  5  1  0  0  0  0
  5  6  1  0  0  0  0
  6  7  1  1  0  0  0
  7  8  2  0  0  0  0
  7  9  1  0  0  0  0
  9 10  1  0  0  0  0
  9 11  1  0  0  0  0
 12 13  1  0  0  0  0
 13 14  1  0  0  0  0
 13 15  2  0  0  0  0
 14 16  1  0  0  0  0
 14 17  2  0  0  0  0
 16 18  1  0  0  0  0
 18 19  2  0  0  0  0
 18 23  1  0  0  0  0
 19 20  1  0  0  0  0
 20 21  2  0  0  0  0
 21 22  1  0  0  0  0
 21 24  1  0  0  0  0
 22 23  2  0  0  0  0
 25 26  1  0  0  0  0
 26 27  1  0  0  0  0
 26 28  2  0  0  0  0
 27 29  2  0  0  0  0
 27 32  1  0  0  0  0
 29 30  1  0  0  0  0
 30 31  2  0  0  0  0
 30 33  1  0  0  0  0
 31 32  1  0  0  0  0
 31 36  1  0  0  0  0
 33 34  1  0  0  0  0
 34 35  1  0  0  0  0
 35 36  1  0  0  0  0
 35 37  1  0  0  0  0
M  END
>  <DATABASE_ID>
DB09075

>  <DATABASE_NAME>
drugbank

>  <SMILES>
CN(C)C(=O)[C@H]1CC[C@H](NC(=O)C(=O)NC2=NC=C(Cl)C=C2)[C@@H](C1)NC(=O)C1=NC2=C(CN(C)CC2)S1

>  <INCHI_IDENTIFIER>
InChI=1S/C24H30ClN7O4S/c1-31(2)24(36)13-4-6-15(27-20(33)21(34)30-19-7-5-14(25)11-26-19)17(10-13)28-22(35)23-29-16-8-9-32(3)12-18(16)37-23/h5,7,11,13,15,17H,4,6,8-10,12H2,1-3H3,(H,27,33)(H,28,35)(H,26,30,34)/t13-,15-,17+/m0/s1

>  <INCHI_KEY>
HGVDHZBSSITLCT-JLJPHGGASA-N

>  <FORMULA>
C24H30ClN7O4S

>  <MOLECULAR_WEIGHT>
548.06

>  <EXACT_MASS>
547.1768513

>  <JCHEM_ACCEPTOR_COUNT>
7

>  <JCHEM_ATOM_COUNT>
67

>  <JCHEM_AVERAGE_POLARIZABILITY>
56.312799678304806

>  <JCHEM_BIOAVAILABILITY>
1

>  <JCHEM_DONOR_COUNT>
3

>  <JCHEM_FORMAL_CHARGE>
0

>  <JCHEM_GHOSE_FILTER>
0

>  <JCHEM_IUPAC>
N'-(5-chloropyridin-2-yl)-N-[(1S,2R,4S)-4-(dimethylcarbamoyl)-2-{5-methyl-4H,5H,6H,7H-[1,3]thiazolo[5,4-c]pyridine-2-amido}cyclohexyl]ethanediamide

>  <ALOGPS_LOGP>
1.61

>  <JCHEM_LOGP>
0.9016595426666651

>  <ALOGPS_LOGS>
-4.68

>  <JCHEM_MDDR_LIKE_RULE>
1

>  <JCHEM_NUMBER_OF_RINGS>
4

>  <JCHEM_PHYSIOLOGICAL_CHARGE>
0

>  <JCHEM_PKA>
12.324371348477477

>  <JCHEM_PKA_STRONGEST_ACIDIC>
10.744986383439683

>  <JCHEM_PKA_STRONGEST_BASIC>
6.325714731284217

>  <JCHEM_POLAR_SURFACE_AREA>
136.63

>  <JCHEM_REFRACTIVITY>
140.14339999999996

>  <JCHEM_ROTATABLE_BOND_COUNT>
6

>  <JCHEM_RULE_OF_FIVE>
0

>  <ALOGPS_SOLUBILITY>
1.14e-02 g/l

>  <JCHEM_TRADITIONAL_IUPAC>
edoxaban

>  <JCHEM_VEBER_RULE>
0

>  <DRUGBANK_ID>
DB09075

>  <DRUG_GROUPS>
approved

>  <GENERIC_NAME>
Edoxaban

>  <SYNONYMS>
Edoxaban

>  <PRODUCTS>
Lixiana; Roteas; Savaysa

>  <SALTS>
Edoxaban tosylate; Edoxaban tosylate monohydrate

$$$$

 OpenBabel05042401512D

 21 22  0  0  1  0  0  0  0  0999 V2000
    3.5724    2.0625    0.0000 C   0  0  0  0  0  0  0  0  0  0  0  0
    2.8579    3.3000    0.0000 C   0  0  0  0  0  0  0  0  0  0  0  0
   -4.3729    0.4548    0.0000 C   0  0  0  0  0  0  0  0  0  0  0  0
   -2.1434    3.7125    0.0000 C   0  0  0  0  0  0  0  0  0  0  0  0
   -2.8579    3.3000    0.0000 C   0  0  0  0  0  0  0  0  0  0  0  0
   -1.4289    3.3000    0.0000 C   0  0  0  0  0  0  0  0  0  0  0  0
   -3.4710    1.9230    0.0000 C   0  0  0  0  0  0  0  0  0  0  0  0
    1.4289    2.4750    0.0000 C   0  0  0  0  0  0  0  0  0  0  0  0
   -0.0000    2.4750    0.0000 C   0  0  0  0  0  0  0  0  0  0  0  0
    2.8579    2.4750    0.0000 C   0  0  0  0  0  0  0  0  0  0  0  0
   -3.5479    0.4548    0.0000 C   0  0  0  0  0  0  0  0  0  0  0  0
   -2.8579    2.4750    0.0000 C   0  0  0  0  0  0  0  0  0  0  0  0
    0.7145    2.0625    0.0000 C   0  0  3  0  0  0  0  0  0  0  0  0
   -1.4289    2.4750    0.0000 C   0  0  0  0  0  0  0  0  0  0  0  0
   -3.1354    1.1693    0.0000 C   0  0  0  0  0  0  0  0  0  0  0  0
   -2.1434    2.0625    0.0000 C   0  0  0  0  0  0  0  0  0  0  0  0
    2.1434    2.0625    0.0000 N   0  0  0  0  0  0  0  0  0  0  0  0
   -3.1354   -0.2596    0.0000 O   0  0  0  0  0  0  0  0  0  0  0  0
    0.7145    1.2375    0.0000 O   0  0  0  0  0  0  0  0  0  0  0  0
   -0.7145    2.0625    0.0000 O   0  0  0  0  0  0  0  0  0  0  0  0
   -2.3149    1.2555    0.0000 O   0  0  0  0  0  0  0  0  0  0  0  0
  5  4  2  0  0  0  0
  6  4  1  0  0  0  0
 10  1  1  0  0  0  0
 10  2  1  0  0  0  0
 11  3  1  0  0  0  0
 12  5  1  0  0  0  0
 12  7  1  0  0  0  0
 13  8  1  0  0  0  0
 13  9  1  0  0  0  0
 14  6  2  0  0  0  0
 15  7  2  0  0  0  0
 15 11  1  0  0  0  0
 16 12  2  0  0  0  0
 16 14  1  0  0  0  0
 17  8  1  0  0  0  0
 17 10  1  0  0  0  0
 18 11  2  0  0  0  0
 19 13  1  0  0  0  0
 20  9  1  0  0  0  0
 20 14  1  0  0  0  0
 21 15  1  0  0  0  0
 21 16  1  0  0  0  0
M  END
>  <DATABASE_ID>
DB09013

>  <DATABASE_NAME>
drugbank

>  <SMILES>
CC(C)NCC(O)COC1=CC=CC2=C1OC(=C2)C(C)=O

>  <INCHI_IDENTIFIER>
InChI=1S/C16H21NO4/c1-10(2)17-8-13(19)9-20-14-6-4-5-12-7-15(11(3)18)21-16(12)14/h4-7,10,13,17,19H,8-9H2,1-3H3

>  <INCHI_KEY>
ZPQPDBIHYCBNIG-UHFFFAOYSA-N

>  <FORMULA>
C16H21NO4

>  <MOLECULAR_WEIGHT>
291.347

>  <EXACT_MASS>
291.14705816

>  <JCHEM_ACCEPTOR_COUNT>
4

>  <JCHEM_ATOM_COUNT>
42

>  <JCHEM_AVERAGE_POLARIZABILITY>
32.01096847938432

>  <JCHEM_BIOAVAILABILITY>
1

>  <JCHEM_DONOR_COUNT>
2

>  <JCHEM_FORMAL_CHARGE>
0

>  <JCHEM_GHOSE_FILTER>
1

>  <JCHEM_IUPAC>
1-(7-{2-hydroxy-3-[(propan-2-yl)amino]propoxy}-1-benzofuran-2-yl)ethan-1-one

>  <ALOGPS_LOGP>
1.71

>  <JCHEM_LOGP>
1.2309912156666667

>  <ALOGPS_LOGS>
-3.43

>  <JCHEM_MDDR_LIKE_RULE>
0

>  <JCHEM_NUMBER_OF_RINGS>
2

>  <JCHEM_PHYSIOLOGICAL_CHARGE>
1

>  <JCHEM_PKA>
14.580672055212787

>  <JCHEM_PKA_STRONGEST_ACIDIC>
13.918017317398515

>  <JCHEM_PKA_STRONGEST_BASIC>
9.566244451801689

>  <JCHEM_POLAR_SURFACE_AREA>
71.7

>  <JCHEM_REFRACTIVITY>
79.49690000000001

>  <JCHEM_ROTATABLE_BOND_COUNT>
7

>  <JCHEM_RULE_OF_FIVE>
1

>  <ALOGPS_SOLUBILITY>
1.08e-01 g/l

>  <JCHEM_TRADITIONAL_IUPAC>
bentos

>  <JCHEM_VEBER_RULE>
0

>  <DRUGBANK_ID>
DB09013

>  <DRUG_GROUPS>
experimental

>  <GENERIC_NAME>
Befunolol

>  <SYNONYMS>
Befunolol; Befunololum

>  <INTERNATIONAL_BRANDS>
Bentos; Bentox; Glauconex

>  <SALTS>
Befunolol hydrochloride

$$$$

 OpenBabel05042401512D

 33 35  0  0  0  0  0  0  0  0999 V2000
   17.3663   -9.8587    0.0000 C   0  0  0  0  0  0  0  0  0  0  0  0
   17.3663  -10.6837    0.0000 C   0  0  0  0  0  0  0  0  0  0  0  0
   16.6238  -11.0962    0.0000 C   0  0  0  0  0  0  0  0  0  0  0  0
   15.9225  -10.6837    0.0000 C   0  0  0  0  0  0  0  0  0  0  0  0
   15.9225   -9.8587    0.0000 C   0  0  0  0  0  0  0  0  0  0  0  0
   16.6238   -9.4462    0.0000 C   0  0  0  0  0  0  0  0  0  0  0  0
   18.0675   -9.4462    0.0000 Cl  0  0  0  0  0  0  0  0  0  0  0  0
   15.1800  -11.0962    0.0000 N   0  0  0  0  0  0  0  0  0  0  0  0
   14.4788  -10.6837    0.0000 C   0  0  0  0  0  0  0  0  0  0  0  0
   13.7775  -11.0962    0.0000 N   0  0  0  0  0  0  0  0  0  0  0  0
   14.4788   -9.8587    0.0000 O   0  0  0  0  0  0  0  0  0  0  0  0
   13.0763  -10.6837    0.0000 C   0  0  0  0  0  0  0  0  0  0  0  0
   12.3750  -11.0962    0.0000 C   0  0  0  0  0  0  0  0  0  0  0  0
   11.6325  -10.6837    0.0000 C   0  0  0  0  0  0  0  0  0  0  0  0
   11.6325   -9.8587    0.0000 C   0  0  0  0  0  0  0  0  0  0  0  0
   12.3338   -9.4462    0.0000 C   0  0  0  0  0  0  0  0  0  0  0  0
   13.0763   -9.8587    0.0000 C   0  0  0  0  0  0  0  0  0  0  0  0
   10.9725   -9.4462    0.0000 O   0  0  0  0  0  0  0  0  0  0  0  0
   10.2713   -9.8587    0.0000 C   0  0  0  0  0  0  0  0  0  0  0  0
   10.2713  -10.6837    0.0000 C   0  0  0  0  0  0  0  0  0  0  0  0
    9.5288  -11.0962    0.0000 C   0  0  0  0  0  0  0  0  0  0  0  0
    8.8275  -10.6837    0.0000 N   0  0  0  0  0  0  0  0  0  0  0  0
    8.8275   -9.8175    0.0000 C   0  0  0  0  0  0  0  0  0  0  0  0
    9.5288   -9.4050    0.0000 C   0  0  0  0  0  0  0  0  0  0  0  0
    8.1263   -9.4462    0.0000 C   0  0  0  0  0  0  0  0  0  0  0  0
    7.3838   -9.8587    0.0000 N   0  0  0  0  0  0  0  0  0  0  0  0
    8.1263   -8.6212    0.0000 O   0  0  0  0  0  0  0  0  0  0  0  0
    6.6825   -9.4462    0.0000 C   0  0  0  0  0  0  0  0  0  0  0  0
   12.3750  -11.9212    0.0000 F   0  0  0  0  0  0  0  0  0  0  0  0
   16.6238   -8.6212    0.0000 C   0  0  0  0  0  0  0  0  0  0  0  0
   16.6238   -7.7962    0.0000 F   0  0  0  0  0  0  0  0  0  0  0  0
   15.7988   -8.6212    0.0000 F   0  0  0  0  0  0  0  0  0  0  0  0
   17.4488   -8.6212    0.0000 F   0  0  0  0  0  0  0  0  0  0  0  0
  1  2  2  0  0  0  0
  1  6  1  0  0  0  0
  1  7  1  0  0  0  0
  2  3  1  0  0  0  0
  3  4  2  0  0  0  0
  4  5  1  0  0  0  0
  4  8  1  0  0  0  0
  5  6  2  0  0  0  0
  6 30  1  0  0  0  0
  8  9  1  0  0  0  0
  9 10  1  0  0  0  0
  9 11  2  0  0  0  0
 10 12  1  0  0  0  0
 12 13  2  0  0  0  0
 12 17  1  0  0  0  0
 13 14  1  0  0  0  0
 13 29  1  0  0  0  0
 14 15  2  0  0  0  0
 15 16  1  0  0  0  0
 15 18  1  0  0  0  0
 16 17  2  0  0  0  0
 18 19  1  0  0  0  0
 19 20  2  0  0  0  0
 19 24  1  0  0  0  0
 20 21  1  0  0  0  0
 21 22  2  0  0  0  0
 22 23  1  0  0  0  0
 23 24  2  0  0  0  0
 23 25  1  0  0  0  0
 25 26  1  0  0  0  0
 25 27  2  0  0  0  0
 26 28  1  0  0  0  0
 30 31  1  0  0  0  0
 30 32  1  0  0  0  0
 30 33  1  0  0  0  0
M  END
>  <DATABASE_ID>
DB08896

>  <DATABASE_NAME>
drugbank

>  <SMILES>
CNC(=O)C1=CC(OC2=CC(F)=C(NC(=O)NC3=CC=C(Cl)C(=C3)C(F)(F)F)C=C2)=CC=N1

>  <INCHI_IDENTIFIER>
InChI=1S/C21H15ClF4N4O3/c1-27-19(31)18-10-13(6-7-28-18)33-12-3-5-17(16(23)9-12)30-20(32)29-11-2-4-15(22)14(8-11)21(24,25)26/h2-10H,1H3,(H,27,31)(H2,29,30,32)

>  <INCHI_KEY>
FNHKPVJBJVTLMP-UHFFFAOYSA-N

>  <FORMULA>
C21H15ClF4N4O3

>  <MOLECULAR_WEIGHT>
482.815

>  <EXACT_MASS>
482.076880893

>  <JCHEM_ACCEPTOR_COUNT>
3

>  <JCHEM_ATOM_COUNT>
48

>  <JCHEM_AVERAGE_NEUTRAL_MICROSPECIES_CHARGE>
0.0007505925925680722

>  <JCHEM_AVERAGE_POLARIZABILITY>
41.5478743861423

>  <JCHEM_BIOAVAILABILITY>
1

>  <JCHEM_DONOR_COUNT>
3

>  <JCHEM_FORMAL_CHARGE>
0

>  <JCHEM_GHOSE_FILTER>
0

>  <JCHEM_IUPAC>
4-[4-({[4-chloro-3-(trifluoromethyl)phenyl]carbamoyl}amino)-3-fluorophenoxy]-N-methylpyridine-2-carboxamide

>  <ALOGPS_LOGP>
4.53

>  <JCHEM_LOGP>
4.486031697

>  <ALOGPS_LOGS>
-5.67

>  <JCHEM_MDDR_LIKE_RULE>
1

>  <JCHEM_NEUTRAL_CHARGE>
0

>  <JCHEM_NUMBER_OF_RINGS>
3

>  <JCHEM_PHYSIOLOGICAL_CHARGE>
0

>  <JCHEM_PKA>
13.995233624535093

>  <JCHEM_PKA_STRONGEST_ACIDIC>
10.517571114585602

>  <JCHEM_PKA_STRONGEST_BASIC>
3.02341914206159

>  <JCHEM_POLAR_SURFACE_AREA>
92.35

>  <JCHEM_REFRACTIVITY>
114.73470000000002

>  <JCHEM_ROTATABLE_BOND_COUNT>
6

>  <JCHEM_RULE_OF_FIVE>
1

>  <ALOGPS_SOLUBILITY>
1.02e-03 g/l

>  <JCHEM_TRADITIONAL_IUPAC>
biotin

>  <JCHEM_VEBER_RULE>
0

>  <DRUGBANK_ID>
DB08896

>  <DRUG_GROUPS>
approved

>  <GENERIC_NAME>
Regorafenib

>  <SYNONYMS>
Regorafenib; Régorafénib; Regorafenibum

>  <PRODUCTS>
Stivarga

>  <SALTS>
Regorafenib monohydrate

$$$$

 OpenBabel05042401512D

 29 32  0  0  0  0  0  0  0  0999 V2000
    2.8079    0.1640    0.0000 C   0  0  0  0  0  0  0  0  0  0  0  0
    2.8079    0.9663    0.0000 C   0  0  0  0  0  0  0  0  0  0  0  0
    2.0968   -0.2589    0.0000 C   0  0  0  0  0  0  0  0  0  0  0  0
    3.5116   -0.2480    0.0000 C   0  0  0  0  0  0  0  0  0  0  0  0
    2.0858    1.3893    0.0000 C   0  0  0  0  0  0  0  0  0  0  0  0
    3.5262    1.3893    0.0000 C   0  0  0  0  0  0  0  0  0  0  0  0
    1.3783    0.1531    0.0000 N   0  0  0  0  0  0  0  0  0  0  0  0
    2.0968   -1.0684    0.0000 C   0  0  0  0  0  0  0  0  0  0  0  0
    4.2482    0.1640    0.0000 C   0  0  0  0  0  0  0  0  0  0  0  0
    1.3783    0.9809    0.0000 N   0  0  0  0  0  0  0  0  0  0  0  0
    2.0858    2.2099    0.0000 O   0  0  0  0  0  0  0  0  0  0  0  0
    4.2482    0.9955    0.0000 C   0  0  0  0  0  0  0  0  0  0  0  0
    1.3783   -1.4878    0.0000 C   0  0  0  0  0  0  0  0  0  0  0  0
    0.6564    1.3820    0.0000 C   0  0  0  0  0  0  0  0  0  0  0  0
    0.6710   -1.0684    0.0000 O   0  0  0  0  0  0  0  0  0  0  0  0
    1.3783   -2.2281    0.0000 O   0  0  0  0  0  0  0  0  0  0  0  0
   -0.0182    1.3820    0.0000 C   0  0  0  0  0  0  0  0  0  0  0  0
   -0.4595    0.7293    0.0000 N   0  0  0  0  0  0  0  0  0  0  0  0
   -0.4595    2.0530    0.0000 S   0  0  0  0  0  0  0  0  0  0  0  0
   -1.2471    0.9955    0.0000 C   0  0  0  0  0  0  0  0  0  0  0  0
   -1.2471    1.8051    0.0000 C   0  0  0  0  0  0  0  0  0  0  0  0
   -1.9508    0.5979    0.0000 C   0  0  0  0  0  0  0  0  0  0  0  0
   -1.9508    2.2281    0.0000 C   0  0  0  0  0  0  0  0  0  0  0  0
   -2.6802    1.0210    0.0000 C   0  0  0  0  0  0  0  0  0  0  0  0
   -2.6802    1.8051    0.0000 C   0  0  0  0  0  0  0  0  0  0  0  0
   -3.4205    0.5979    0.0000 C   0  0  0  0  0  0  0  0  0  0  0  0
   -3.7705    1.3820    0.0000 F   0  0  0  0  0  0  0  0  0  0  0  0
   -4.2482    0.3646    0.0000 F   0  0  0  0  0  0  0  0  0  0  0  0
   -3.2309   -0.2042    0.0000 F   0  0  0  0  0  0  0  0  0  0  0  0
  1  2  2  0  0  0  0
  1  3  1  0  0  0  0
  1  4  1  0  0  0  0
  2  5  1  0  0  0  0
  2  6  1  0  0  0  0
  3  7  2  0  0  0  0
  3  8  1  0  0  0  0
  4  9  2  0  0  0  0
  5 10  1  0  0  0  0
  5 11  2  0  0  0  0
  6 12  2  0  0  0  0
  7 10  1  0  0  0  0
  8 13  1  0  0  0  0
  9 12  1  0  0  0  0
 10 14  1  0  0  0  0
 13 15  1  0  0  0  0
 13 16  2  0  0  0  0
 14 17  1  0  0  0  0
 17 18  2  0  0  0  0
 17 19  1  0  0  0  0
 18 20  1  0  0  0  0
 19 21  1  0  0  0  0
 20 22  1  0  0  0  0
 20 21  2  0  0  0  0
 21 23  1  0  0  0  0
 22 24  2  0  0  0  0
 23 25  2  0  0  0  0
 24 26  1  0  0  0  0
 24 25  1  0  0  0  0
 26 27  1  0  0  0  0
 26 28  1  0  0  0  0
 26 29  1  0  0  0  0
M  END
>  <DATABASE_ID>
DB08772

>  <DATABASE_NAME>
drugbank

>  <SMILES>
OC(=O)CC1=NN(CC2=NC3=C(S2)C=CC(=C3)C(F)(F)F)C(=O)C2=C1C=CC=C2

>  <INCHI_IDENTIFIER>
InChI=1S/C19H12F3N3O3S/c20-19(21,22)10-5-6-15-14(7-10)23-16(29-15)9-25-18(28)12-4-2-1-3-11(12)13(24-25)8-17(26)27/h1-7H,8-9H2,(H,26,27)

>  <INCHI_KEY>
BCSVCWVQNOXFGL-UHFFFAOYSA-N

>  <FORMULA>
C19H12F3N3O3S

>  <MOLECULAR_WEIGHT>
419.377

>  <EXACT_MASS>
419.05514657

>  <JCHEM_ACCEPTOR_COUNT>
5

>  <JCHEM_ATOM_COUNT>
41

>  <JCHEM_AVERAGE_NEUTRAL_MICROSPECIES_CHARGE>
-0.9990892683422268

>  <JCHEM_AVERAGE_POLARIZABILITY>
37.58909266645579

>  <JCHEM_BIOAVAILABILITY>
1

>  <JCHEM_DONOR_COUNT>
1

>  <JCHEM_FORMAL_CHARGE>
0

>  <JCHEM_GHOSE_FILTER>
1

>  <JCHEM_IUPAC>
2-(4-oxo-3-{[5-(trifluoromethyl)-1,3-benzothiazol-2-yl]methyl}-3,4-dihydrophthalazin-1-yl)acetic acid

>  <ALOGPS_LOGP>
3.21

>  <JCHEM_LOGP>
3.6301295226026484

>  <ALOGPS_LOGS>
-5.55

>  <JCHEM_MDDR_LIKE_RULE>
0

>  <JCHEM_NEUTRAL_CHARGE>
-1

>  <JCHEM_NUMBER_OF_RINGS>
4

>  <JCHEM_PHYSIOLOGICAL_CHARGE>
-1

>  <JCHEM_PKA_STRONGEST_ACIDIC>
3.9735389717620064

>  <JCHEM_PKA_STRONGEST_BASIC>
2.307006060052536

>  <JCHEM_POLAR_SURFACE_AREA>
82.86

>  <JCHEM_REFRACTIVITY>
98.22109999999999

>  <JCHEM_ROTATABLE_BOND_COUNT>
5

>  <JCHEM_RULE_OF_FIVE>
1

>  <ALOGPS_SOLUBILITY>
1.17e-03 g/l

>  <JCHEM_TRADITIONAL_IUPAC>
6-(2,6-dichlorophenyl)-2-{[3-(hydroxymethyl)phenyl]amino}-8-methylpyrido[2,3-d]pyrimidin-7-one

>  <JCHEM_VEBER_RULE>
0

>  <DRUGBANK_ID>
DB08772

>  <DRUG_GROUPS>
experimental

>  <GENERIC_NAME>
Zopolrestat

>  <SYNONYMS>
Zopolrestat; Zopolrestatum

$$$$
ZEC
 OpenBabel05042401512D

 14 15  0  0  0  0  0  0  0  0999 V2000
    2.8148   -0.5244    0.0000 O   0  0  0  0  0  0  0  0  0  0  0  0
    2.1003   -0.1119    0.0000 C   0  0  0  0  0  0  0  0  0  0  0  0
    1.3858   -0.5244    0.0000 C   0  0  0  0  0  0  0  0  0  0  0  0
    0.6714   -0.1119    0.0000 C   0  0  0  0  0  0  0  0  0  0  0  0
   -0.1133   -0.3669    0.0000 S   0  0  0  0  0  0  0  0  0  0  0  0
   -0.5982    0.3006    0.0000 C   0  0  0  0  0  0  0  0  0  0  0  0
   -1.4232    0.3006    0.0000 S   0  0  0  0  0  0  0  0  0  0  0  0
   -2.2482    0.3006    0.0000 N   0  0  0  0  0  0  0  0  0  0  0  0
   -1.4232    1.1256    0.0000 O   0  0  0  0  0  0  0  0  0  0  0  0
   -1.4232   -0.5244    0.0000 O   0  0  0  0  0  0  0  0  0  0  0  0
   -0.1133    0.9680    0.0000 N   0  0  0  0  0  0  0  0  0  0  0  0
    0.6714    0.7131    0.0000 C   0  0  0  0  0  0  0  0  0  0  0  0
    1.3858    1.1256    0.0000 C   0  0  0  0  0  0  0  0  0  0  0  0
    2.1003    0.7131    0.0000 C   0  0  0  0  0  0  0  0  0  0  0  0
  1  2  1  0  0  0  0
  2  3  2  0  0  0  0
  2 14  1  0  0  0  0
  3  4  1  0  0  0  0
  4  5  1  0  0  0  0
  4 12  2  0  0  0  0
  5  6  1  0  0  0  0
  6  7  1  0  0  0  0
  6 11  2  0  0  0  0
  7  8  1  0  0  0  0
  7  9  2  0  0  0  0
  7 10  2  0  0  0  0
 11 12  1  0  0  0  0
 12 13  1  0  0  0  0
 13 14  2  0  0  0  0
M  END
>  <DATABASE_ID>
DB08765

>  <DATABASE_NAME>
drugbank

>  <SMILES>
NS(=O)(=O)C1=NC2=C(S1)C=C(O)C=C2

>  <INCHI_IDENTIFIER>
InChI=1S/C7H6N2O3S2/c8-14(11,12)7-9-5-2-1-4(10)3-6(5)13-7/h1-3,10H,(H2,8,11,12)

>  <INCHI_KEY>
NOOBQTYVTDBXTL-UHFFFAOYSA-N

>  <FORMULA>
C7H6N2O3S2

>  <MOLECULAR_WEIGHT>
230.264

>  <EXACT_MASS>
229.981983448

>  <JCHEM_ACCEPTOR_COUNT>
4

>  <JCHEM_ATOM_COUNT>
20

>  <JCHEM_AVERAGE_NEUTRAL_MICROSPECIES_CHARGE>
-0.24457421184282346

>  <JCHEM_AVERAGE_POLARIZABILITY>
20.906794106362597

>  <JCHEM_BIOAVAILABILITY>
1

>  <JCHEM_DONOR_COUNT>
2

>  <JCHEM_FORMAL_CHARGE>
0

>  <JCHEM_GHOSE_FILTER>
1

>  <JCHEM_IUPAC>
6-hydroxy-1,3-benzothiazole-2-sulfonamide

>  <ALOGPS_LOGP>
0.91

>  <JCHEM_LOGP>
1.1001872183333332

>  <ALOGPS_LOGS>
-2.29

>  <JCHEM_MDDR_LIKE_RULE>
0

>  <JCHEM_NEUTRAL_CHARGE>
0

>  <JCHEM_NUMBER_OF_RINGS>
2

>  <JCHEM_PHYSIOLOGICAL_CHARGE>
0

>  <JCHEM_PKA>
9.22043211924666

>  <JCHEM_PKA_STRONGEST_ACIDIC>
7.504263702503899

>  <JCHEM_PKA_STRONGEST_BASIC>
-1.9120983906648104

>  <JCHEM_POLAR_SURFACE_AREA>
93.28

>  <JCHEM_REFRACTIVITY>
50.74080000000001

>  <JCHEM_ROTATABLE_BOND_COUNT>
1

>  <JCHEM_RULE_OF_FIVE>
1

>  <ALOGPS_SOLUBILITY>
1.18e+00 g/l

>  <JCHEM_TRADITIONAL_IUPAC>
tetrahydrofolic acid

>  <JCHEM_VEBER_RULE>
0

>  <DRUGBANK_ID>
DB08765

>  <DRUG_GROUPS>
experimental

>  <GENERIC_NAME>
6-HYDROXY-1,3-BENZOTHIAZOLE-2-SULFONAMIDE

$$$$
YE6
 OpenBabel05042401512D

 16 17  0  0  0  0  0  0  0  0999 V2000
   -1.5539    1.1866    0.0000 Cl  0  0  0  0  0  0  0  0  0  0  0  0
   -0.8394    1.5991    0.0000 C   0  0  0  0  0  0  0  0  0  0  0  0
   -0.8394    2.4241    0.0000 C   0  0  0  0  0  0  0  0  0  0  0  0
   -0.1250    2.8366    0.0000 C   0  0  0  0  0  0  0  0  0  0  0  0
    0.5895    2.4241    0.0000 C   0  0  0  0  0  0  0  0  0  0  0  0
    0.5895    1.5991    0.0000 C   0  0  0  0  0  0  0  0  0  0  0  0
   -0.1250    1.1866    0.0000 C   0  0  0  0  0  0  0  0  0  0  0  0
   -0.1250    0.3616    0.0000 C   0  0  0  0  0  0  0  0  0  0  0  0
    0.5425   -0.1233    0.0000 O   0  0  0  0  0  0  0  0  0  0  0  0
   -0.7924   -0.1233    0.0000 C   0  0  0  0  0  0  0  0  0  0  0  0
   -0.5375   -0.9079    0.0000 C   0  0  0  0  0  0  0  0  0  0  0  0
    0.2875   -0.9079    0.0000 C   0  0  0  0  0  0  0  0  0  0  0  0
    0.7725   -1.5754    0.0000 C   0  0  0  0  0  0  0  0  0  0  0  0
    1.5929   -1.4891    0.0000 O   0  0  0  0  0  0  0  0  0  0  0  0
    0.4369   -2.3291    0.0000 N   0  0  0  0  0  0  0  0  0  0  0  0
    0.9218   -2.9965    0.0000 N   0  0  0  0  0  0  0  0  0  0  0  0
  1  2  1  0  0  0  0
  2  3  2  0  0  0  0
  2  7  1  0  0  0  0
  3  4  1  0  0  0  0
  4  5  2  0  0  0  0
  5  6  1  0  0  0  0
  6  7  2  0  0  0  0
  7  8  1  0  0  0  0
  8  9  1  0  0  0  0
  8 10  2  0  0  0  0
  9 12  1  0  0  0  0
 10 11  1  0  0  0  0
 11 12  2  0  0  0  0
 12 13  1  0  0  0  0
 13 14  2  0  0  0  0
 13 15  1  0  0  0  0
 15 16  1  0  0  0  0
M  END
>  <DATABASE_ID>
DB08757

>  <DATABASE_NAME>
drugbank

>  <SMILES>
NNC(=O)C1=CC=C(O1)C1=CC=CC=C1Cl

>  <INCHI_IDENTIFIER>
InChI=1S/C11H9ClN2O2/c12-8-4-2-1-3-7(8)9-5-6-10(16-9)11(15)14-13/h1-6H,13H2,(H,14,15)

>  <INCHI_KEY>
XQMRHWSGTVEDFG-UHFFFAOYSA-N

>  <FORMULA>
C11H9ClN2O2

>  <MOLECULAR_WEIGHT>
236.654

>  <EXACT_MASS>
236.035255249

>  <JCHEM_ACCEPTOR_COUNT>
2

>  <JCHEM_ATOM_COUNT>
25

>  <JCHEM_AVERAGE_NEUTRAL_MICROSPECIES_CHARGE>
-1.2482703302253031e-05

>  <JCHEM_AVERAGE_POLARIZABILITY>
23.05461156516421

>  <JCHEM_BIOAVAILABILITY>
1

>  <JCHEM_DONOR_COUNT>
2

>  <JCHEM_FORMAL_CHARGE>
0

>  <JCHEM_GHOSE_FILTER>
1

>  <JCHEM_IUPAC>
5-(2-chlorophenyl)furan-2-carbohydrazide

>  <ALOGPS_LOGP>
2.33

>  <JCHEM_LOGP>
1.7589282233333332

>  <ALOGPS_LOGS>
-3.49

>  <JCHEM_MDDR_LIKE_RULE>
0

>  <JCHEM_NEUTRAL_CHARGE>
0

>  <JCHEM_NUMBER_OF_RINGS>
2

>  <JCHEM_PHYSIOLOGICAL_CHARGE>
0

>  <JCHEM_PKA_STRONGEST_ACIDIC>
11.307592593136006

>  <JCHEM_PKA_STRONGEST_BASIC>
2.565450661800661

>  <JCHEM_POLAR_SURFACE_AREA>
68.26

>  <JCHEM_REFRACTIVITY>
61.82990000000001

>  <JCHEM_ROTATABLE_BOND_COUNT>
2

>  <JCHEM_RULE_OF_FIVE>
1

>  <ALOGPS_SOLUBILITY>
7.69e-02 g/l

>  <JCHEM_TRADITIONAL_IUPAC>
biotin

>  <JCHEM_VEBER_RULE>
0

>  <DRUGBANK_ID>
DB08757

>  <DRUG_GROUPS>
experimental

>  <GENERIC_NAME>
5-(2-chlorophenyl)furan-2-carbohydrazide

$$$$
WR2
 OpenBabel05042401512D

 34 34  0  0  1  0  0  0  0  0999 V2000
    3.0436    7.6271    0.0000 O   0  0  0  0  0  0  0  0  0  0  0  0
    3.0436    6.8021    0.0000 C   0  0  0  0  0  0  0  0  0  0  0  0
    2.3291    6.3896    0.0000 N   0  0  0  0  0  0  0  0  0  0  0  0
    1.6147    6.8021    0.0000 C   0  0  0  0  0  0  0  0  0  0  0  0
    3.7581    6.3896    0.0000 C   0  0  0  0  0  0  0  0  0  0  0  0
    3.7581    5.5646    0.0000 C   0  0  0  0  0  0  0  0  0  0  0  0
    3.7581    4.7396    0.0000 C   0  0  0  0  0  0  0  0  0  0  0  0
    4.5831    5.5646    0.0000 C   0  0  0  0  0  0  0  0  0  0  0  0
    2.9331    5.5646    0.0000 C   0  0  0  0  0  0  0  0  0  0  0  0
    4.4726    6.8021    0.0000 N   0  0  0  0  0  0  0  0  0  0  0  0
    5.1870    6.3896    0.0000 C   0  0  0  0  0  0  0  0  0  0  0  0
    5.1870    5.5646    0.0000 O   0  0  0  0  0  0  0  0  0  0  0  0
    5.9015    6.8021    0.0000 C   0  0  2  0  0  0  0  0  0  0  0  0
    5.9015    7.6271    0.0000 C   0  0  0  0  0  0  0  0  0  0  0  0
    5.1870    8.0396    0.0000 C   0  0  0  0  0  0  0  0  0  0  0  0
    4.4726    7.6271    0.0000 C   0  0  0  0  0  0  0  0  0  0  0  0
    5.1870    8.8646    0.0000 C   0  0  0  0  0  0  0  0  0  0  0  0
    6.6160    6.3896    0.0000 C   0  0  0  0  0  0  0  0  0  0  0  0
    6.6160    5.5646    0.0000 C   0  0  0  0  0  0  0  0  0  0  0  0
    5.9015    5.1521    0.0000 O   0  0  0  0  0  0  0  0  0  0  0  0
    7.3304    5.1521    0.0000 N   0  0  0  0  0  0  0  0  0  0  0  0
    7.3304    4.3271    0.0000 O   0  0  0  0  0  0  0  0  0  0  0  0
    7.3304    6.8021    0.0000 C   0  0  0  0  0  0  0  0  0  0  0  0
    8.0449    6.3896    0.0000 N   0  0  0  0  0  0  0  0  0  0  0  0
    8.7594    6.8021    0.0000 C   0  0  0  0  0  0  0  0  0  0  0  0
    8.7594    7.6271    0.0000 O   0  0  0  0  0  0  0  0  0  0  0  0
    9.4739    6.3896    0.0000 C   0  0  0  0  0  0  0  0  0  0  0  0
   10.2275    6.7252    0.0000 N   0  0  0  0  0  0  0  0  0  0  0  0
   10.7796    6.1121    0.0000 C   0  0  0  0  0  0  0  0  0  0  0  0
   10.3671    5.3976    0.0000 C   0  0  0  0  0  0  0  0  0  0  0  0
    9.5601    5.5691    0.0000 S   0  0  0  0  0  0  0  0  0  0  0  0
    3.2524    6.0976    0.0000 H   0  0  0  0  0  0  0  0  0  0  0  0
    5.3958    7.0941    0.0000 H   0  0  0  0  0  0  0  0  0  0  0  0
    6.1103    6.0976    0.0000 H   0  0  0  0  0  0  0  0  0  0  0  0
  1  2  2  0  0  0  0
  2  3  1  0  0  0  0
  2  5  1  0  0  0  0
  3  4  1  0  0  0  0
  5  6  1  0  0  0  0
  5 10  1  0  0  0  0
  5 32  1  0  0  0  0
  6  7  1  0  0  0  0
  6  8  1  0  0  0  0
  6  9  1  0  0  0  0
 10 11  1  0  0  0  0
 11 12  2  0  0  0  0
 11 13  1  0  0  0  0
 13 14  1  0  0  0  0
 13 18  1  0  0  0  0
 13 33  1  1  0  0  0
 14 15  1  0  0  0  0
 15 16  1  0  0  0  0
 15 17  1  0  0  0  0
 18 19  1  0  0  0  0
 18 23  1  0  0  0  0
 18 34  1  0  0  0  0
 19 20  2  0  0  0  0
 19 21  1  0  0  0  0
 21 22  1  0  0  0  0
 23 24  1  0  0  0  0
 24 25  1  0  0  0  0
 25 26  2  0  0  0  0
 25 27  1  0  0  0  0
 27 28  2  0  0  0  0
 27 31  1  0  0  0  0
 28 29  1  0  0  0  0
 29 30  2  0  0  0  0
 30 31  1  0  0  0  0
M  END
>  <DATABASE_ID>
DB08733

>  <DATABASE_NAME>
drugbank

>  <SMILES>
[H][C@@](CNC(=O)C1=NC=CS1)(C(=O)NO)[C@@]([H])(CC(C)C)C(=O)N[C@]([H])(C(=O)NC)C(C)(C)C

>  <INCHI_IDENTIFIER>
InChI=1S/C20H33N5O5S/c1-11(2)9-12(15(26)24-14(17(28)21-6)20(3,4)5)13(16(27)25-30)10-23-18(29)19-22-7-8-31-19/h7-8,11-14,30H,9-10H2,1-6H3,(H,21,28)(H,23,29)(H,24,26)(H,25,27)/t12-,13+,14-/m1/s1

>  <INCHI_KEY>
GAHIXYNNFMCKFQ-HZSPNIEDSA-N

>  <FORMULA>
C20H33N5O5S

>  <MOLECULAR_WEIGHT>
455.572

>  <EXACT_MASS>
455.220239881

>  <JCHEM_ACCEPTOR_COUNT>
6

>  <JCHEM_ATOM_COUNT>
64

>  <JCHEM_AVERAGE_NEUTRAL_MICROSPECIES_CHARGE>
-0.01390977240824993

>  <JCHEM_AVERAGE_POLARIZABILITY>
47.951070524772334

>  <JCHEM_BIOAVAILABILITY>
1

>  <JCHEM_DONOR_COUNT>
5

>  <JCHEM_FORMAL_CHARGE>
0

>  <JCHEM_GHOSE_FILTER>
1

>  <JCHEM_IUPAC>
(2R,3R)-N-[(1S)-2,2-dimethyl-1-(methylcarbamoyl)propyl]-N'-hydroxy-2-(2-methylpropyl)-3-{[(1,3-thiazol-2-yl)formamido]methyl}butanediamide

>  <ALOGPS_LOGP>
0.88

>  <JCHEM_LOGP>
0.5209379563333338

>  <ALOGPS_LOGS>
-4.36

>  <JCHEM_MDDR_LIKE_RULE>
0

>  <JCHEM_NEUTRAL_CHARGE>
0

>  <JCHEM_NUMBER_OF_RINGS>
1

>  <JCHEM_PHYSIOLOGICAL_CHARGE>
0

>  <JCHEM_PKA>
11.887026004366417

>  <JCHEM_PKA_STRONGEST_ACIDIC>
8.851152651810255

>  <JCHEM_PKA_STRONGEST_BASIC>
0.05435311122330804

>  <JCHEM_POLAR_SURFACE_AREA>
149.52000000000004

>  <JCHEM_REFRACTIVITY>
115.66549999999997

>  <JCHEM_ROTATABLE_BOND_COUNT>
11

>  <JCHEM_RULE_OF_FIVE>
1

>  <ALOGPS_SOLUBILITY>
2.01e-02 g/l

>  <JCHEM_TRADITIONAL_IUPAC>
biotin

>  <JCHEM_VEBER_RULE>
0

>  <DRUGBANK_ID>
DB08733

>  <DRUG_GROUPS>
experimental

>  <GENERIC_NAME>
(2R,3R)-N^1^-[(1S)-2,2-DIMETHYL-1-(METHYLCARBAMOYL)PROPYL]-N^4^-HYDROXY-2-(2-METHYLPROPYL)-3-{[(1,3-THIAZOL-2-YLCARBONYL)AMINO]METHYL}BUTANEDIAMIDE

$$$$
THZ
 OpenBabel05042401512D

 20 21  0  0  1  0  0  0  0  0999 V2000
   -0.6753   -0.7264    0.0000 N   0  0  0  0  0  0  0  0  0  0  0  0
   -0.6753    0.0985    0.0000 C   0  0  1  0  0  0  0  0  0  0  0  0
   -1.3898    0.5110    0.0000 C   0  0  0  0  0  0  0  0  0  0  0  0
   -2.1043    0.0985    0.0000 C   0  0  0  0  0  0  0  0  0  0  0  0
   -2.8187    0.5110    0.0000 C   0  0  0  0  0  0  0  0  0  0  0  0
   -3.5332    0.0985    0.0000 N   0  0  0  0  0  0  0  0  0  0  0  0
   -4.2477    0.5110    0.0000 C   0  0  0  0  0  0  0  0  0  0  0  0
   -4.9622    0.0985    0.0000 N   0  0  0  0  0  0  0  0  0  0  0  0
   -4.2477    1.3360    0.0000 N   0  0  0  0  0  0  0  0  0  0  0  0
    0.0390    0.5110    0.0000 C   0  0  0  0  0  0  0  0  0  0  0  0
    0.0390    1.3360    0.0000 O   0  0  0  0  0  0  0  0  0  0  0  0
    0.7535    0.0985    0.0000 C   0  0  0  0  0  0  0  0  0  0  0  0
    1.5072    0.4340    0.0000 S   0  0  0  0  0  0  0  0  0  0  0  0
    2.0592   -0.1790    0.0000 C   0  0  0  0  0  0  0  0  0  0  0  0
    2.8842   -0.1790    0.0000 C   0  0  0  0  0  0  0  0  0  0  0  0
    3.2967   -0.8934    0.0000 C   0  0  0  0  0  0  0  0  0  0  0  0
    2.8842   -1.6079    0.0000 C   0  0  0  0  0  0  0  0  0  0  0  0
    2.0592   -1.6079    0.0000 C   0  0  0  0  0  0  0  0  0  0  0  0
    1.6467   -0.8934    0.0000 C   0  0  0  0  0  0  0  0  0  0  0  0
    0.8398   -0.7219    0.0000 N   0  0  0  0  0  0  0  0  0  0  0  0
  2  1  1  1  0  0  0
  2  3  1  0  0  0  0
  2 10  1  0  0  0  0
  3  4  1  0  0  0  0
  4  5  1  0  0  0  0
  5  6  1  0  0  0  0
  6  7  1  0  0  0  0
  7  8  1  0  0  0  0
  7  9  2  0  0  0  0
 10 11  2  0  0  0  0
 10 12  1  0  0  0  0
 12 13  1  0  0  0  0
 12 20  2  0  0  0  0
 13 14  1  0  0  0  0
 14 15  2  0  0  0  0
 14 19  1  0  0  0  0
 15 16  1  0  0  0  0
 16 17  2  0  0  0  0
 17 18  1  0  0  0  0
 18 19  2  0  0  0  0
 19 20  1  0  0  0  0
M  END
>  <DATABASE_ID>
DB08624

>  <DATABASE_NAME>
drugbank

>  <SMILES>
N[C@@H](CCCNC(N)=N)C(=O)C1=NC2=CC=CC=C2S1

>  <INCHI_IDENTIFIER>
InChI=1S/C13H17N5OS/c14-8(4-3-7-17-13(15)16)11(19)12-18-9-5-1-2-6-10(9)20-12/h1-2,5-6,8H,3-4,7,14H2,(H4,15,16,17)/t8-/m0/s1

>  <INCHI_KEY>
MAJHCCQPIDXPAN-QMMMGPOBSA-N

>  <FORMULA>
C13H17N5OS

>  <MOLECULAR_WEIGHT>
291.372

>  <EXACT_MASS>
291.115380881

>  <JCHEM_ACCEPTOR_COUNT>
6

>  <JCHEM_ATOM_COUNT>
37

>  <JCHEM_AVERAGE_POLARIZABILITY>
30.443783472071107

>  <JCHEM_BIOAVAILABILITY>
1

>  <JCHEM_DONOR_COUNT>
4

>  <JCHEM_FORMAL_CHARGE>
0

>  <JCHEM_GHOSE_FILTER>
1

>  <JCHEM_IUPAC>
N-[(4S)-4-amino-5-(1,3-benzothiazol-2-yl)-5-oxopentyl]guanidine

>  <ALOGPS_LOGP>
0.59

>  <JCHEM_LOGP>
0.783058467

>  <ALOGPS_LOGS>
-3.35

>  <JCHEM_MDDR_LIKE_RULE>
0

>  <JCHEM_NUMBER_OF_RINGS>
2

>  <JCHEM_PHYSIOLOGICAL_CHARGE>
2

>  <JCHEM_PKA_STRONGEST_ACIDIC>
17.789109845009197

>  <JCHEM_PKA_STRONGEST_BASIC>
11.999309347415041

>  <JCHEM_POLAR_SURFACE_AREA>
117.88000000000001

>  <JCHEM_REFRACTIVITY>
88.28810000000001

>  <JCHEM_ROTATABLE_BOND_COUNT>
6

>  <JCHEM_RULE_OF_FIVE>
1

>  <ALOGPS_SOLUBILITY>
1.30e-01 g/l

>  <JCHEM_TRADITIONAL_IUPAC>
tigecycline

>  <JCHEM_VEBER_RULE>
0

>  <DRUGBANK_ID>
DB08624

>  <DRUG_GROUPS>
experimental

>  <GENERIC_NAME>
1-[(4S)-4-amino-5-(1,3-benzothiazol-2-yl)-5-oxopentyl]guanidine

$$$$
RTR
 OpenBabel05042401512D

 30 33  0  0  0  0  0  0  0  0999 V2000
   -3.2334   -2.8583    0.0000 N   0  0  0  0  0  0  0  0  0  0  0  0
   -3.6459   -2.1438    0.0000 C   0  0  0  0  0  0  0  0  0  0  0  0
   -4.4709   -2.1438    0.0000 N   0  0  0  0  0  0  0  0  0  0  0  0
   -3.2334   -1.4294    0.0000 C   0  0  0  0  0  0  0  0  0  0  0  0
   -3.6459   -0.7149    0.0000 C   0  0  0  0  0  0  0  0  0  0  0  0
   -3.2334   -0.0004    0.0000 C   0  0  0  0  0  0  0  0  0  0  0  0
   -2.4084   -0.0004    0.0000 C   0  0  0  0  0  0  0  0  0  0  0  0
   -1.9959   -0.7149    0.0000 C   0  0  0  0  0  0  0  0  0  0  0  0
   -2.4084   -1.4294    0.0000 C   0  0  0  0  0  0  0  0  0  0  0  0
   -1.9959    0.7141    0.0000 C   0  0  0  0  0  0  0  0  0  0  0  0
   -1.1709    0.7141    0.0000 N   0  0  0  0  0  0  0  0  0  0  0  0
   -0.7584    1.4285    0.0000 C   0  0  0  0  0  0  0  0  0  0  0  0
   -1.1709    2.1430    0.0000 O   0  0  0  0  0  0  0  0  0  0  0  0
    0.0666    1.4285    0.0000 C   0  0  0  0  0  0  0  0  0  0  0  0
    0.4791    0.7141    0.0000 N   0  0  0  0  0  0  0  0  0  0  0  0
    0.0666   -0.0004    0.0000 C   0  0  0  0  0  0  0  0  0  0  0  0
   -0.7584   -0.0004    0.0000 C   0  0  0  0  0  0  0  0  0  0  0  0
    1.3041    0.7141    0.0000 S   0  0  0  0  0  0  0  0  0  0  0  0
    1.3041   -0.1109    0.0000 O   0  0  0  0  0  0  0  0  0  0  0  0
    1.3041    1.5391    0.0000 O   0  0  0  0  0  0  0  0  0  0  0  0
    2.1291    0.7141    0.0000 C   0  0  0  0  0  0  0  0  0  0  0  0
    2.6140    0.0466    0.0000 C   0  0  0  0  0  0  0  0  0  0  0  0
    3.3986    0.3016    0.0000 C   0  0  0  0  0  0  0  0  0  0  0  0
    3.3986    1.1266    0.0000 C   0  0  0  0  0  0  0  0  0  0  0  0
    2.6140    1.3815    0.0000 S   0  0  0  0  0  0  0  0  0  0  0  0
    4.1131    1.5391    0.0000 C   0  0  0  0  0  0  0  0  0  0  0  0
    4.8276    1.1266    0.0000 C   0  0  0  0  0  0  0  0  0  0  0  0
    5.5420    1.5391    0.0000 Cl  0  0  0  0  0  0  0  0  0  0  0  0
    4.8276    0.3016    0.0000 C   0  0  0  0  0  0  0  0  0  0  0  0
    4.1131   -0.1109    0.0000 C   0  0  0  0  0  0  0  0  0  0  0  0
  1  2  2  0  0  0  0
  2  3  1  0  0  0  0
  2  4  1  0  0  0  0
  4  5  2  0  0  0  0
  4  9  1  0  0  0  0
  5  6  1  0  0  0  0
  6  7  2  0  0  0  0
  7  8  1  0  0  0  0
  7 10  1  0  0  0  0
  8  9  2  0  0  0  0
 10 11  1  0  0  0  0
 11 12  1  0  0  0  0
 11 17  1  0  0  0  0
 12 13  2  0  0  0  0
 12 14  1  0  0  0  0
 14 15  1  0  0  0  0
 15 16  1  0  0  0  0
 15 18  1  0  0  0  0
 16 17  1  0  0  0  0
 18 19  2  0  0  0  0
 18 20  2  0  0  0  0
 18 21  1  0  0  0  0
 21 22  2  0  0  0  0
 21 25  1  0  0  0  0
 22 23  1  0  0  0  0
 23 24  2  0  0  0  0
 23 30  1  0  0  0  0
 24 25  1  0  0  0  0
 24 26  1  0  0  0  0
 26 27  2  0  0  0  0
 27 28  1  0  0  0  0
 27 29  1  0  0  0  0
 29 30  2  0  0  0  0
M  END
>  <DATABASE_ID>
DB08495

>  <DATABASE_NAME>
drugbank

>  <SMILES>
NC(=N)C1=CC=C(CN2CCN(CC2=O)S(=O)(=O)C2=CC3=C(S2)C=C(Cl)C=C3)C=C1

>  <INCHI_IDENTIFIER>
InChI=1S/C20H19ClN4O3S2/c21-16-6-5-15-9-19(29-17(15)10-16)30(27,28)25-8-7-24(18(26)12-25)11-13-1-3-14(4-2-13)20(22)23/h1-6,9-10H,7-8,11-12H2,(H3,22,23)

>  <INCHI_KEY>
VXONTEUOQXFJJS-UHFFFAOYSA-N

>  <FORMULA>
C20H19ClN4O3S2

>  <MOLECULAR_WEIGHT>
462.973

>  <EXACT_MASS>
462.058709581

>  <JCHEM_ACCEPTOR_COUNT>
5

>  <JCHEM_ATOM_COUNT>
49

>  <JCHEM_AVERAGE_NEUTRAL_MICROSPECIES_CHARGE>
0.9999671875008648

>  <JCHEM_AVERAGE_POLARIZABILITY>
46.65527328233441

>  <JCHEM_BIOAVAILABILITY>
1

>  <JCHEM_DONOR_COUNT>
2

>  <JCHEM_FORMAL_CHARGE>
0

>  <JCHEM_GHOSE_FILTER>
1

>  <JCHEM_IUPAC>
4-({4-[(6-chloro-1-benzothiophen-2-yl)sulfonyl]-2-oxopiperazin-1-yl}methyl)benzene-1-carboximidamide

>  <ALOGPS_LOGP>
2.33

>  <JCHEM_LOGP>
2.2645036356666663

>  <ALOGPS_LOGS>
-4.65

>  <JCHEM_MDDR_LIKE_RULE>
0

>  <JCHEM_NEUTRAL_CHARGE>
1

>  <JCHEM_NUMBER_OF_RINGS>
4

>  <JCHEM_PHYSIOLOGICAL_CHARGE>
1

>  <JCHEM_PKA_STRONGEST_ACIDIC>
17.007124601030853

>  <JCHEM_PKA_STRONGEST_BASIC>
11.483946245642509

>  <JCHEM_POLAR_SURFACE_AREA>
107.56

>  <JCHEM_REFRACTIVITY>
127.3304

>  <JCHEM_ROTATABLE_BOND_COUNT>
4

>  <JCHEM_RULE_OF_FIVE>
1

>  <ALOGPS_SOLUBILITY>
1.03e-02 g/l

>  <JCHEM_TRADITIONAL_IUPAC>
biotin

>  <JCHEM_VEBER_RULE>
0

>  <DRUGBANK_ID>
DB08495

>  <DRUG_GROUPS>
experimental

>  <GENERIC_NAME>
4-({4-[(6-CHLORO-1-BENZOTHIEN-2-YL)SULFONYL]-2-OXOPIPERAZIN-1-YL}METHYL)BENZENECARBOXIMIDAMIDE

$$$$
RRP
 OpenBabel05042401512D

 30 33  0  0  0  0  0  0  0  0999 V2000
   -4.7794   -1.7036    0.0000 N   0  0  0  0  0  0  0  0  0  0  0  0
   -4.3669   -0.9891    0.0000 C   0  0  0  0  0  0  0  0  0  0  0  0
   -4.7794   -0.2746    0.0000 N   0  0  0  0  0  0  0  0  0  0  0  0
   -3.5419   -0.9891    0.0000 C   0  0  0  0  0  0  0  0  0  0  0  0
   -3.1294   -0.2746    0.0000 C   0  0  0  0  0  0  0  0  0  0  0  0
   -2.3044   -0.2746    0.0000 C   0  0  0  0  0  0  0  0  0  0  0  0
   -1.8919   -0.9891    0.0000 C   0  0  0  0  0  0  0  0  0  0  0  0
   -2.3044   -1.7036    0.0000 C   0  0  0  0  0  0  0  0  0  0  0  0
   -3.1294   -1.7036    0.0000 C   0  0  0  0  0  0  0  0  0  0  0  0
   -1.8919    0.4398    0.0000 C   0  0  0  0  0  0  0  0  0  0  0  0
   -1.0669    0.4398    0.0000 N   0  0  0  0  0  0  0  0  0  0  0  0
   -0.6544    1.1543    0.0000 C   0  0  0  0  0  0  0  0  0  0  0  0
   -1.0669    1.8688    0.0000 O   0  0  0  0  0  0  0  0  0  0  0  0
    0.1706    1.1543    0.0000 C   0  0  0  0  0  0  0  0  0  0  0  0
    0.5831    0.4398    0.0000 N   0  0  0  0  0  0  0  0  0  0  0  0
    0.1706   -0.2746    0.0000 C   0  0  0  0  0  0  0  0  0  0  0  0
   -0.6544   -0.2746    0.0000 C   0  0  0  0  0  0  0  0  0  0  0  0
    1.4081    0.4398    0.0000 S   0  0  0  0  0  0  0  0  0  0  0  0
    1.4081   -0.3852    0.0000 O   0  0  0  0  0  0  0  0  0  0  0  0
    1.4081    1.2648    0.0000 O   0  0  0  0  0  0  0  0  0  0  0  0
    2.2331    0.4398    0.0000 C   0  0  0  0  0  0  0  0  0  0  0  0
    2.7181   -0.2276    0.0000 C   0  0  0  0  0  0  0  0  0  0  0  0
    3.5027    0.0273    0.0000 C   0  0  0  0  0  0  0  0  0  0  0  0
    3.5027    0.8523    0.0000 C   0  0  0  0  0  0  0  0  0  0  0  0
    2.7181    1.1073    0.0000 S   0  0  0  0  0  0  0  0  0  0  0  0
    4.2172    1.2648    0.0000 C   0  0  0  0  0  0  0  0  0  0  0  0
    4.9316    0.8523    0.0000 C   0  0  0  0  0  0  0  0  0  0  0  0
    5.6461    1.2648    0.0000 Cl  0  0  0  0  0  0  0  0  0  0  0  0
    4.9316    0.0273    0.0000 C   0  0  0  0  0  0  0  0  0  0  0  0
    4.2172   -0.3852    0.0000 C   0  0  0  0  0  0  0  0  0  0  0  0
  1  2  2  0  0  0  0
  2  3  1  0  0  0  0
  2  4  1  0  0  0  0
  4  5  2  0  0  0  0
  4  9  1  0  0  0  0
  5  6  1  0  0  0  0
  6  7  2  0  0  0  0
  6 10  1  0  0  0  0
  7  8  1  0  0  0  0
  8  9  2  0  0  0  0
 10 11  1  0  0  0  0
 11 12  1  0  0  0  0
 11 17  1  0  0  0  0
 12 13  2  0  0  0  0
 12 14  1  0  0  0  0
 14 15  1  0  0  0  0
 15 16  1  0  0  0  0
 15 18  1  0  0  0  0
 16 17  1  0  0  0  0
 18 19  2  0  0  0  0
 18 20  2  0  0  0  0
 18 21  1  0  0  0  0
 21 22  2  0  0  0  0
 21 25  1  0  0  0  0
 22 23  1  0  0  0  0
 23 24  2  0  0  0  0
 23 30  1  0  0  0  0
 24 25  1  0  0  0  0
 24 26  1  0  0  0  0
 26 27  2  0  0  0  0
 27 28  1  0  0  0  0
 27 29  1  0  0  0  0
 29 30  2  0  0  0  0
M  END
>  <DATABASE_ID>
DB08487

>  <DATABASE_NAME>
drugbank

>  <SMILES>
NC(=N)C1=CC(CN2CCN(CC2=O)S(=O)(=O)C2=CC3=C(S2)C=C(Cl)C=C3)=CC=C1

>  <INCHI_IDENTIFIER>
InChI=1S/C20H19ClN4O3S2/c21-16-5-4-14-9-19(29-17(14)10-16)30(27,28)25-7-6-24(18(26)12-25)11-13-2-1-3-15(8-13)20(22)23/h1-5,8-10H,6-7,11-12H2,(H3,22,23)

>  <INCHI_KEY>
PRMSFVUWLBPPLY-UHFFFAOYSA-N

>  <FORMULA>
C20H19ClN4O3S2

>  <MOLECULAR_WEIGHT>
462.973

>  <EXACT_MASS>
462.058709581

>  <JCHEM_ACCEPTOR_COUNT>
5

>  <JCHEM_ATOM_COUNT>
49

>  <JCHEM_AVERAGE_NEUTRAL_MICROSPECIES_CHARGE>
0.999961476598863

>  <JCHEM_AVERAGE_POLARIZABILITY>
46.53046212257329

>  <JCHEM_BIOAVAILABILITY>
1

>  <JCHEM_DONOR_COUNT>
2

>  <JCHEM_FORMAL_CHARGE>
0

>  <JCHEM_GHOSE_FILTER>
1

>  <JCHEM_IUPAC>
3-({4-[(6-chloro-1-benzothiophen-2-yl)sulfonyl]-2-oxopiperazin-1-yl}methyl)benzene-1-carboximidamide

>  <ALOGPS_LOGP>
2.30

>  <JCHEM_LOGP>
2.2645036356666663

>  <ALOGPS_LOGS>
-4.64

>  <JCHEM_MDDR_LIKE_RULE>
0

>  <JCHEM_NEUTRAL_CHARGE>
1

>  <JCHEM_NUMBER_OF_RINGS>
4

>  <JCHEM_PHYSIOLOGICAL_CHARGE>
1

>  <JCHEM_PKA_STRONGEST_ACIDIC>
17.007120947344365

>  <JCHEM_PKA_STRONGEST_BASIC>
11.414258490441279

>  <JCHEM_POLAR_SURFACE_AREA>
107.56

>  <JCHEM_REFRACTIVITY>
127.3304

>  <JCHEM_ROTATABLE_BOND_COUNT>
4

>  <JCHEM_RULE_OF_FIVE>
1

>  <ALOGPS_SOLUBILITY>
1.06e-02 g/l

>  <JCHEM_TRADITIONAL_IUPAC>
biotin

>  <JCHEM_VEBER_RULE>
0

>  <DRUGBANK_ID>
DB08487

>  <DRUG_GROUPS>
experimental

>  <GENERIC_NAME>
3-({4-[(6-CHLORO-1-BENZOTHIEN-2-YL)SULFONYL]-2-OXOPIPERAZIN-1-YL}METHYL)BENZENECARBOXIMIDAMIDE

$$$$
PNC
 OpenBabel05042401512D

 23 23  0  0  0  0  0  0  0  0999 V2000
   -2.4602    0.0683    0.0000 C   0  0  0  0  0  0  0  0  0  0  0  0
   -2.4602   -0.7567    0.0000 C   0  0  0  0  0  0  0  0  0  0  0  0
   -3.1747   -1.1692    0.0000 C   0  0  0  0  0  0  0  0  0  0  0  0
   -3.8892   -0.7567    0.0000 C   0  0  0  0  0  0  0  0  0  0  0  0
   -3.8892    0.0683    0.0000 C   0  0  0  0  0  0  0  0  0  0  0  0
   -3.1747    0.4808    0.0000 C   0  0  0  0  0  0  0  0  0  0  0  0
   -1.7457    0.4808    0.0000 C   0  0  0  0  0  0  0  0  0  0  0  0
    0.3977    0.0683    0.0000 C   0  0  0  0  0  0  0  0  0  0  0  0
    1.1121    0.4808    0.0000 C   0  0  0  0  0  0  0  0  0  0  0  0
    1.8266    0.0683    0.0000 C   0  0  0  0  0  0  0  0  0  0  0  0
    2.5411    0.4808    0.0000 C   0  0  0  0  0  0  0  0  0  0  0  0
    3.9700    0.4808    0.0000 C   0  0  0  0  0  0  0  0  0  0  0  0
    4.6845    0.0683    0.0000 C   0  0  0  0  0  0  0  0  0  0  0  0
   -0.3168    0.4808    0.0000 C   0  0  0  0  0  0  0  0  0  0  0  0
   -4.6036   -1.1692    0.0000 N   0  3  0  0  0  0  0  0  0  0  0  0
    3.2556    0.0683    0.0000 N   0  0  0  0  0  0  0  0  0  0  0  0
   -1.0313    0.0683    0.0000 N   0  0  0  0  0  0  0  0  0  0  0  0
   -0.3168    1.3058    0.0000 O   0  0  0  0  0  0  0  0  0  0  0  0
   -5.3181   -0.7567    0.0000 O   0  0  0  0  0  0  0  0  0  0  0  0
   -4.6036   -1.9942    0.0000 O   0  5  0  0  0  0  0  0  0  0  0  0
    2.5411    1.3058    0.0000 O   0  0  0  0  0  0  0  0  0  0  0  0
    5.3990    0.4808    0.0000 O   0  0  0  0  0  0  0  0  0  0  0  0
    4.6845   -0.7567    0.0000 O   0  0  0  0  0  0  0  0  0  0  0  0
  1  2  2  0  0  0  0
  1  6  1  0  0  0  0
  1  7  1  0  0  0  0
  2  3  1  0  0  0  0
  3  4  2  0  0  0  0
  4  5  1  0  0  0  0
  4 15  1  0  0  0  0
  5  6  2  0  0  0  0
  7 17  1  0  0  0  0
  8  9  1  0  0  0  0
  8 14  1  0  0  0  0
  9 10  1  0  0  0  0
 10 11  1  0  0  0  0
 11 16  1  0  0  0  0
 11 21  2  0  0  0  0
 12 13  1  0  0  0  0
 12 16  1  0  0  0  0
 13 22  2  0  0  0  0
 13 23  1  0  0  0  0
 14 17  1  0  0  0  0
 14 18  2  0  0  0  0
 15 19  2  0  0  0  0
 15 20  1  0  0  0  0
M  CHG  2  15   1  20  -1
M  END
>  <DATABASE_ID>
DB08410

>  <DATABASE_NAME>
drugbank

>  <SMILES>
OC(=O)CNC(=O)CCCC(=O)NCC1=CC=C(C=C1)[N+]([O-])=O

>  <INCHI_IDENTIFIER>
InChI=1S/C14H17N3O6/c18-12(2-1-3-13(19)16-9-14(20)21)15-8-10-4-6-11(7-5-10)17(22)23/h4-7H,1-3,8-9H2,(H,15,18)(H,16,19)(H,20,21)

>  <INCHI_KEY>
UCFVFUIGNWHAJJ-UHFFFAOYSA-N

>  <FORMULA>
C14H17N3O6

>  <MOLECULAR_WEIGHT>
323.3013

>  <EXACT_MASS>
323.111735291

>  <JCHEM_ACCEPTOR_COUNT>
6

>  <JCHEM_ATOM_COUNT>
40

>  <JCHEM_AVERAGE_NEUTRAL_MICROSPECIES_CHARGE>
-0.999550424573213

>  <JCHEM_AVERAGE_POLARIZABILITY>
31.525623862664958

>  <JCHEM_BIOAVAILABILITY>
1

>  <JCHEM_DONOR_COUNT>
3

>  <JCHEM_FORMAL_CHARGE>
0

>  <JCHEM_GHOSE_FILTER>
1

>  <JCHEM_IUPAC>
2-(4-{[(4-nitrophenyl)methyl]carbamoyl}butanamido)acetic acid

>  <ALOGPS_LOGP>
1.09

>  <JCHEM_LOGP>
0.02199321666666642

>  <ALOGPS_LOGS>
-3.60

>  <JCHEM_MDDR_LIKE_RULE>
0

>  <JCHEM_NEUTRAL_CHARGE>
-1

>  <JCHEM_NUMBER_OF_RINGS>
1

>  <JCHEM_PHYSIOLOGICAL_CHARGE>
-1

>  <JCHEM_PKA>
14.677641409476173

>  <JCHEM_PKA_STRONGEST_ACIDIC>
3.653022529339814

>  <JCHEM_PKA_STRONGEST_BASIC>
-1.433556011582314

>  <JCHEM_POLAR_SURFACE_AREA>
138.64

>  <JCHEM_REFRACTIVITY>
78.59349999999998

>  <JCHEM_ROTATABLE_BOND_COUNT>
9

>  <JCHEM_RULE_OF_FIVE>
1

>  <ALOGPS_SOLUBILITY>
8.18e-02 g/l

>  <JCHEM_TRADITIONAL_IUPAC>
tetrahydrofolic acid

>  <JCHEM_VEBER_RULE>
0

>  <DRUGBANK_ID>
DB08410

>  <DRUG_GROUPS>
experimental

>  <GENERIC_NAME>
PARA-NITROBENZYL GLUTARYL GLYCINIC ACID

$$$$
OLU
 OpenBabel05042401512D

 16 18  0  0  0  0  0  0  0  0999 V2000
   -3.0500    0.9924    0.0000 O   0  0  0  0  0  0  0  0  0  0  0  0
   -2.3826    0.5075    0.0000 C   0  0  0  0  0  0  0  0  0  0  0  0
   -1.5979    0.7624    0.0000 N   0  0  0  0  0  0  0  0  0  0  0  0
   -1.1130    0.0950    0.0000 C   0  0  0  0  0  0  0  0  0  0  0  0
   -1.5979   -0.5725    0.0000 S   0  0  0  0  0  0  0  0  0  0  0  0
   -2.3826   -0.3175    0.0000 C   0  0  0  0  0  0  0  0  0  0  0  0
   -0.2880    0.0950    0.0000 C   0  0  0  0  0  0  0  0  0  0  0  0
    0.1969    0.7624    0.0000 S   0  0  0  0  0  0  0  0  0  0  0  0
    0.9815    0.5075    0.0000 C   0  0  0  0  0  0  0  0  0  0  0  0
    1.6960    0.9200    0.0000 C   0  0  0  0  0  0  0  0  0  0  0  0
    0.9815   -0.3175    0.0000 C   0  0  0  0  0  0  0  0  0  0  0  0
    0.1969   -0.5725    0.0000 N   0  0  0  0  0  0  0  0  0  0  0  0
    1.6960   -0.7300    0.0000 C   0  0  0  0  0  0  0  0  0  0  0  0
    2.4105   -0.3175    0.0000 C   0  0  0  0  0  0  0  0  0  0  0  0
    2.4105    0.5075    0.0000 C   0  0  0  0  0  0  0  0  0  0  0  0
    3.1249    0.9200    0.0000 O   0  0  0  0  0  0  0  0  0  0  0  0
  1  2  2  0  0  0  0
  2  3  1  0  0  0  0
  2  6  1  0  0  0  0
  3  4  2  0  0  0  0
  4  5  1  0  0  0  0
  4  7  1  0  0  0  0
  5  6  1  0  0  0  0
  7  8  1  0  0  0  0
  7 12  2  0  0  0  0
  8  9  1  0  0  0  0
  9 10  1  0  0  0  0
  9 11  2  0  0  0  0
 10 15  2  0  0  0  0
 11 12  1  0  0  0  0
 11 13  1  0  0  0  0
 13 14  2  0  0  0  0
 14 15  1  0  0  0  0
 15 16  1  0  0  0  0
M  END
>  <DATABASE_ID>
DB08326

>  <DATABASE_NAME>
drugbank

>  <SMILES>
OC1=CC2=C(C=C1)N=C(S2)C1=NC(=O)CS1

>  <INCHI_IDENTIFIER>
InChI=1S/C10H6N2O2S2/c13-5-1-2-6-7(3-5)16-10(11-6)9-12-8(14)4-15-9/h1-3,13H,4H2

>  <INCHI_KEY>
JJVOROULKOMTKG-UHFFFAOYSA-N

>  <FORMULA>
C10H6N2O2S2

>  <MOLECULAR_WEIGHT>
250.297

>  <EXACT_MASS>
249.987068826

>  <JCHEM_ACCEPTOR_COUNT>
4

>  <JCHEM_ATOM_COUNT>
22

>  <JCHEM_AVERAGE_NEUTRAL_MICROSPECIES_CHARGE>
-0.8663094493983542

>  <JCHEM_AVERAGE_POLARIZABILITY>
24.275175556946838

>  <JCHEM_BIOAVAILABILITY>
1

>  <JCHEM_DONOR_COUNT>
1

>  <JCHEM_FORMAL_CHARGE>
0

>  <JCHEM_GHOSE_FILTER>
1

>  <JCHEM_IUPAC>
2-(6-hydroxy-1,3-benzothiazol-2-yl)-4,5-dihydro-1,3-thiazol-4-one

>  <ALOGPS_LOGP>
1.96

>  <JCHEM_LOGP>
1.684719428

>  <ALOGPS_LOGS>
-3.44

>  <JCHEM_MDDR_LIKE_RULE>
0

>  <JCHEM_NEUTRAL_CHARGE>
-1

>  <JCHEM_NUMBER_OF_RINGS>
3

>  <JCHEM_PHYSIOLOGICAL_CHARGE>
-1

>  <JCHEM_PKA>
9.216368984345062

>  <JCHEM_PKA_STRONGEST_ACIDIC>
6.210588782206423

>  <JCHEM_PKA_STRONGEST_BASIC>
1.000336003427424

>  <JCHEM_POLAR_SURFACE_AREA>
62.55

>  <JCHEM_REFRACTIVITY>
61.9193

>  <JCHEM_ROTATABLE_BOND_COUNT>
1

>  <JCHEM_RULE_OF_FIVE>
1

>  <ALOGPS_SOLUBILITY>
9.13e-02 g/l

>  <JCHEM_TRADITIONAL_IUPAC>
tetrahydrofolic acid

>  <JCHEM_VEBER_RULE>
0

>  <DRUGBANK_ID>
DB08326

>  <DRUG_GROUPS>
experimental

>  <GENERIC_NAME>
2-(6-HYDROXY-1,3-BENZOTHIAZOL-2-YL)-1,3-THIAZOL-4(5H)-ONE

$$$$
NVC
 OpenBabel05042401512D

 28 30  0  0  1  0  0  0  0  0999 V2000
   -0.5815    0.3297    0.0000 O   0  0  0  0  0  0  0  0  0  0  0  0
    0.1330   -0.0828    0.0000 C   0  0  0  0  0  0  0  0  0  0  0  0
    0.1330   -0.9078    0.0000 C   0  0  0  0  0  0  0  0  0  0  0  0
   -0.5815   -1.3203    0.0000 C   0  0  0  0  0  0  0  0  0  0  0  0
   -0.5815   -2.1453    0.0000 C   0  0  0  0  0  0  0  0  0  0  0  0
   -1.2959   -2.5578    0.0000 C   0  0  0  0  0  0  0  0  0  0  0  0
   -1.2959   -3.3828    0.0000 C   0  0  0  0  0  0  0  0  0  0  0  0
    0.8475   -1.3203    0.0000 C   0  0  0  0  0  0  0  0  0  0  0  0
    0.8475   -2.1453    0.0000 N   0  0  0  0  0  0  0  0  0  0  0  0
    0.1330   -2.5578    0.0000 O   0  0  0  0  0  0  0  0  0  0  0  0
    1.5619   -2.5578    0.0000 C   0  0  0  0  0  0  0  0  0  0  0  0
    1.5619   -3.3828    0.0000 O   0  0  0  0  0  0  0  0  0  0  0  0
    0.8475    0.3297    0.0000 N   0  0  0  0  0  0  0  0  0  0  0  0
    0.9337    1.1502    0.0000 C   0  0  1  0  0  0  0  0  0  0  0  0
    1.7407    1.3217    0.0000 C   0  0  0  0  0  0  0  0  0  0  0  0
    2.1532    0.6072    0.0000 C   0  0  0  0  0  0  0  0  0  0  0  0
    1.6011   -0.0059    0.0000 C   0  0  0  0  0  0  0  0  0  0  0  0
    0.3206    1.7022    0.0000 C   0  0  0  0  0  0  0  0  0  0  0  0
    0.4069    2.5227    0.0000 O   0  0  0  0  0  0  0  0  0  0  0  0
   -0.3468    2.8582    0.0000 C   0  0  0  0  0  0  0  0  0  0  0  0
   -0.8989    2.2451    0.0000 C   0  0  0  0  0  0  0  0  0  0  0  0
   -0.4864    1.5307    0.0000 N   0  0  0  0  0  0  0  0  0  0  0  0
   -0.6018    3.6429    0.0000 C   0  0  0  0  0  0  0  0  0  0  0  0
   -1.4087    3.8144    0.0000 C   0  0  0  0  0  0  0  0  0  0  0  0
   -1.9608    3.2013    0.0000 C   0  0  0  0  0  0  0  0  0  0  0  0
   -1.7058    2.4167    0.0000 C   0  0  0  0  0  0  0  0  0  0  0  0
   -0.3727   -0.6159    0.0000 H   0  0  0  0  0  0  0  0  0  0  0  0
    0.3886    0.9409    0.0000 H   0  0  0  0  0  0  0  0  0  0  0  0
  1  2  2  0  0  0  0
  2  3  1  0  0  0  0
  2 13  1  0  0  0  0
  3  4  1  0  0  0  0
  3  8  1  0  0  0  0
  3 27  1  0  0  0  0
  4  5  1  0  0  0  0
  5  6  1  0  0  0  0
  6  7  1  0  0  0  0
  8  9  1  0  0  0  0
  9 10  1  0  0  0  0
  9 11  1  0  0  0  0
 11 12  2  0  0  0  0
 13 14  1  0  0  0  0
 13 17  1  0  0  0  0
 14 15  1  0  0  0  0
 14 18  1  0  0  0  0
 14 28  1  1  0  0  0
 15 16  1  0  0  0  0
 16 17  1  0  0  0  0
 18 19  1  0  0  0  0
 18 22  2  0  0  0  0
 19 20  1  0  0  0  0
 20 21  2  0  0  0  0
 20 23  1  0  0  0  0
 21 22  1  0  0  0  0
 21 26  1  0  0  0  0
 23 24  2  0  0  0  0
 24 25  1  0  0  0  0
 25 26  2  0  0  0  0
M  END
>  <DATABASE_ID>
DB08310

>  <DATABASE_NAME>
drugbank

>  <SMILES>
[H][C@@](CCCC)(CN(O)C=O)C(=O)N1CCC[C@@]1([H])C1=NC2=C(O1)C=CC=C2

>  <INCHI_IDENTIFIER>
InChI=1S/C19H25N3O4/c1-2-3-7-14(12-21(25)13-23)19(24)22-11-6-9-16(22)18-20-15-8-4-5-10-17(15)26-18/h4-5,8,10,13-14,16,25H,2-3,6-7,9,11-12H2,1H3/t14-,16+/m1/s1

>  <INCHI_KEY>
QDDZLTVSNABZIK-ZBFHGGJFSA-N

>  <FORMULA>
C19H25N3O4

>  <MOLECULAR_WEIGHT>
359.4195

>  <EXACT_MASS>
359.184506303

>  <JCHEM_ACCEPTOR_COUNT>
4

>  <JCHEM_ATOM_COUNT>
51

>  <JCHEM_AVERAGE_NEUTRAL_MICROSPECIES_CHARGE>
-0.03873915894292057

>  <JCHEM_AVERAGE_POLARIZABILITY>
38.86568888223839

>  <JCHEM_BIOAVAILABILITY>
1

>  <JCHEM_DONOR_COUNT>
1

>  <JCHEM_FORMAL_CHARGE>
0

>  <JCHEM_GHOSE_FILTER>
1

>  <JCHEM_IUPAC>
N-[(2R)-3-[(2S)-2-(1,3-benzoxazol-2-yl)pyrrolidin-1-yl]-2-butyl-3-oxopropyl]-N-hydroxyformamide

>  <ALOGPS_LOGP>
2.58

>  <JCHEM_LOGP>
2.1356180523333337

>  <ALOGPS_LOGS>
-3.35

>  <JCHEM_MDDR_LIKE_RULE>
1

>  <JCHEM_NEUTRAL_CHARGE>
0

>  <JCHEM_NUMBER_OF_RINGS>
3

>  <JCHEM_PHYSIOLOGICAL_CHARGE>
0

>  <JCHEM_PKA_STRONGEST_ACIDIC>
8.394690504502798

>  <JCHEM_PKA_STRONGEST_BASIC>
-0.37284308779116915

>  <JCHEM_POLAR_SURFACE_AREA>
86.88000000000001

>  <JCHEM_REFRACTIVITY>
95.30480000000003

>  <JCHEM_ROTATABLE_BOND_COUNT>
7

>  <JCHEM_RULE_OF_FIVE>
1

>  <ALOGPS_SOLUBILITY>
1.60e-01 g/l

>  <JCHEM_TRADITIONAL_IUPAC>
biotin

>  <JCHEM_VEBER_RULE>
0

>  <DRUGBANK_ID>
DB08310

>  <DRUG_GROUPS>
experimental

>  <GENERIC_NAME>
N-[(2R)-2-{[(2S)-2-(1,3-benzoxazol-2-yl)pyrrolidin-1-yl]carbonyl}hexyl]-N-hydroxyformamide

$$$$
LZG
 OpenBabel05042401512D

 35 38  0  0  1  0  0  0  0  0999 V2000
    8.5563   39.1029    0.0000 Cl  0  0  0  0  0  0  0  0  0  0  0  0
    8.5563   38.2779    0.0000 C   0  0  0  0  0  0  0  0  0  0  0  0
    9.2237   37.7930    0.0000 C   0  0  0  0  0  0  0  0  0  0  0  0
    8.9688   37.0084    0.0000 C   0  0  0  0  0  0  0  0  0  0  0  0
    7.8889   37.7930    0.0000 S   0  0  0  0  0  0  0  0  0  0  0  0
    8.1438   37.0084    0.0000 C   0  0  0  0  0  0  0  0  0  0  0  0
    7.6589   36.3410    0.0000 C   0  0  0  0  0  0  0  0  0  0  0  0
    7.9944   35.5873    0.0000 O   0  0  0  0  0  0  0  0  0  0  0  0
    6.8384   36.4272    0.0000 N   0  0  0  0  0  0  0  0  0  0  0  0
    6.3535   35.7597    0.0000 C   0  0  2  0  0  0  0  0  0  0  0  0
    6.6084   34.9751    0.0000 C   0  0  1  0  0  0  0  0  0  0  0  0
    7.3930   34.7202    0.0000 F   0  0  0  0  0  0  0  0  0  0  0  0
    5.9410   34.4902    0.0000 C   0  0  0  0  0  0  0  0  0  0  0  0
    5.5285   35.7597    0.0000 C   0  0  0  0  0  0  0  0  0  0  0  0
    5.2735   34.9751    0.0000 N   0  0  0  0  0  0  0  0  0  0  0  0
    4.4889   34.7202    0.0000 C   0  0  0  0  0  0  0  0  0  0  0  0
    4.3174   33.9132    0.0000 C   0  0  0  0  0  0  0  0  0  0  0  0
    4.9305   33.3612    0.0000 O   0  0  0  0  0  0  0  0  0  0  0  0
    3.5328   33.6583    0.0000 N   0  0  0  0  0  0  0  0  0  0  0  0
    3.3612   32.8513    0.0000 C   0  0  0  0  0  0  0  0  0  0  0  0
    3.9743   32.2993    0.0000 C   0  0  0  0  0  0  0  0  0  0  0  0
    4.7590   32.5542    0.0000 F   0  0  0  0  0  0  0  0  0  0  0  0
    2.5766   32.5964    0.0000 C   0  0  0  0  0  0  0  0  0  0  0  0
    2.4051   31.7894    0.0000 C   0  0  0  0  0  0  0  0  0  0  0  0
    3.0182   31.2374    0.0000 C   0  0  0  0  0  0  0  0  0  0  0  0
    3.8028   31.4923    0.0000 C   0  0  0  0  0  0  0  0  0  0  0  0
    2.8467   30.4304    0.0000 N   0  0  0  0  0  0  0  0  0  0  0  0
    3.4598   29.8784    0.0000 C   0  0  0  0  0  0  0  0  0  0  0  0
    4.2444   30.1333    0.0000 O   0  0  0  0  0  0  0  0  0  0  0  0
    3.2882   29.0714    0.0000 C   0  0  0  0  0  0  0  0  0  0  0  0
    2.5036   28.8164    0.0000 C   0  0  0  0  0  0  0  0  0  0  0  0
    1.8905   29.3685    0.0000 C   0  0  0  0  0  0  0  0  0  0  0  0
    2.0620   30.1755    0.0000 C   0  0  0  0  0  0  0  0  0  0  0  0
    6.9302   35.6684    0.0000 H   0  0  0  0  0  0  0  0  0  0  0  0
    7.0213   35.3880    0.0000 H   0  0  0  0  0  0  0  0  0  0  0  0
  1  2  1  0  0  0  0
  2  3  2  0  0  0  0
  2  5  1  0  0  0  0
  3  4  1  0  0  0  0
  4  6  2  0  0  0  0
  5  6  1  0  0  0  0
  6  7  1  0  0  0  0
  7  8  2  0  0  0  0
  7  9  1  0  0  0  0
 10  9  1  0  0  0  0
 10 11  1  0  0  0  0
 10 14  1  0  0  0  0
 10 34  1  1  0  0  0
 11 12  1  0  0  0  0
 11 13  1  0  0  0  0
 11 35  1  6  0  0  0
 13 15  1  0  0  0  0
 14 15  1  0  0  0  0
 15 16  1  0  0  0  0
 16 17  1  0  0  0  0
 17 18  2  0  0  0  0
 17 19  1  0  0  0  0
 19 20  1  0  0  0  0
 20 21  1  0  0  0  0
 20 23  2  0  0  0  0
 21 22  1  0  0  0  0
 21 26  2  0  0  0  0
 23 24  1  0  0  0  0
 24 25  2  0  0  0  0
 25 26  1  0  0  0  0
 25 27  1  0  0  0  0
 27 28  1  0  0  0  0
 27 33  1  0  0  0  0
 28 29  2  0  0  0  0
 28 30  1  0  0  0  0
 30 31  2  0  0  0  0
 31 32  1  0  0  0  0
 32 33  2  0  0  0  0
M  END
>  <DATABASE_ID>
DB08143

>  <DATABASE_NAME>
drugbank

>  <SMILES>
[H][C@]1(F)CN(CC(=O)NC2=CC=C(C=C2F)N2C=CC=CC2=O)C[C@]1([H])NC(=O)C1=CC=C(Cl)S1

>  <INCHI_IDENTIFIER>
InChI=1S/C22H19ClF2N4O3S/c23-19-7-6-18(33-19)22(32)27-17-11-28(10-15(17)25)12-20(30)26-16-5-4-13(9-14(16)24)29-8-2-1-3-21(29)31/h1-9,15,17H,10-12H2,(H,26,30)(H,27,32)/t15-,17-/m0/s1

>  <INCHI_KEY>
SXIYSYYSKHUTQQ-RDJZCZTQSA-N

>  <FORMULA>
C22H19ClF2N4O3S

>  <MOLECULAR_WEIGHT>
492.926

>  <EXACT_MASS>
492.083445301

>  <JCHEM_ACCEPTOR_COUNT>
4

>  <JCHEM_ATOM_COUNT>
52

>  <JCHEM_AVERAGE_NEUTRAL_MICROSPECIES_CHARGE>
0.0004984290775093093

>  <JCHEM_AVERAGE_POLARIZABILITY>
46.321793387776786

>  <JCHEM_BIOAVAILABILITY>
1

>  <JCHEM_DONOR_COUNT>
2

>  <JCHEM_FORMAL_CHARGE>
0

>  <JCHEM_GHOSE_FILTER>
0

>  <JCHEM_IUPAC>
5-chloro-N-[(3S,4S)-4-fluoro-1-({[2-fluoro-4-(2-oxo-1,2-dihydropyridin-1-yl)phenyl]carbamoyl}methyl)pyrrolidin-3-yl]thiophene-2-carboxamide

>  <ALOGPS_LOGP>
3.37

>  <JCHEM_LOGP>
2.8783654199999997

>  <ALOGPS_LOGS>
-5.55

>  <JCHEM_MDDR_LIKE_RULE>
1

>  <JCHEM_NEUTRAL_CHARGE>
0

>  <JCHEM_NUMBER_OF_RINGS>
4

>  <JCHEM_PHYSIOLOGICAL_CHARGE>
0

>  <JCHEM_PKA>
13.696502453082607

>  <JCHEM_PKA_STRONGEST_ACIDIC>
11.567107991257393

>  <JCHEM_PKA_STRONGEST_BASIC>
3.7209881420575517

>  <JCHEM_POLAR_SURFACE_AREA>
81.75

>  <JCHEM_REFRACTIVITY>
122.11829999999999

>  <JCHEM_ROTATABLE_BOND_COUNT>
6

>  <JCHEM_RULE_OF_FIVE>
1

>  <ALOGPS_SOLUBILITY>
1.39e-03 g/l

>  <JCHEM_TRADITIONAL_IUPAC>
tetrahydrofolic acid

>  <JCHEM_VEBER_RULE>
0

>  <DRUGBANK_ID>
DB08143

>  <DRUG_GROUPS>
experimental

>  <GENERIC_NAME>
5-CHLORO-THIOPHENE-2-CARBOXYLIC ACID ((3S,4S)-4-FLUORO- 1-{[2-FLUORO-4-(2-OXO-2H-PYRIDIN-1-YL)-PHENYLCARBAMOYL]-METHYL}-PYRROLIDIN-3-YL)-AMIDE

$$$$

 OpenBabel05042401512D

 22 24  0  0  1  0  0  0  0  0999 V2000
    0.6410   -0.2132    0.0000 C   0  0  1  0  0  0  0  0  0  0  0  0
    0.1430    0.4357    0.0000 N   0  0  0  0  0  0  0  0  0  0  0  0
    0.6277    1.1031    0.0000 C   0  0  0  0  0  0  0  0  0  0  0  0
    0.3735    1.8925    0.0000 O   0  0  0  0  0  0  0  0  0  0  0  0
    1.4197    0.8516    0.0000 C   0  0  0  0  0  0  0  0  0  0  0  0
    1.4197    0.0517    0.0000 C   0  0  0  0  0  0  0  0  0  0  0  0
    2.1456   -0.3800    0.0000 C   0  0  0  0  0  0  0  0  0  0  0  0
    2.8581    0.0517    0.0000 C   0  0  0  0  0  0  0  0  0  0  0  0
    2.8581    0.8727    0.0000 C   0  0  0  0  0  0  0  0  0  0  0  0
    2.1456    1.2701    0.0000 C   0  0  0  0  0  0  0  0  0  0  0  0
   -0.0661   -0.6291    0.0000 C   0  0  0  0  0  0  0  0  0  0  0  0
   -0.7946   -0.2238    0.0000 C   0  0  0  0  0  0  0  0  0  0  0  0
   -1.5045   -0.6423    0.0000 C   0  0  0  0  0  0  0  0  0  0  0  0
   -2.2302   -0.2423    0.0000 S   0  0  0  0  0  0  0  0  0  0  0  0
   -1.7853    0.3377    0.0000 O   0  0  0  0  0  0  0  0  0  0  0  0
   -2.8581    0.1788    0.0000 O   0  0  0  0  0  0  0  0  0  0  0  0
   -2.7176   -0.8329    0.0000 N   0  0  0  0  0  0  0  0  0  0  0  0
   -1.5045   -1.4766    0.0000 C   0  0  0  0  0  0  0  0  0  0  0  0
   -0.7814   -1.8846    0.0000 C   0  0  0  0  0  0  0  0  0  0  0  0
   -0.0661   -1.4766    0.0000 C   0  0  0  0  0  0  0  0  0  0  0  0
   -2.2170   -1.8925    0.0000 Cl  0  0  0  0  0  0  0  0  0  0  0  0
    1.1284   -0.8516    0.0000 O   0  0  0  0  0  0  0  0  0  0  0  0
  1 11  1  1  0  0  0
  1 22  1  0  0  0  0
  2  1  1  0  0  0  0
  3  2  1  0  0  0  0
  3  5  1  0  0  0  0
  4  3  2  0  0  0  0
  5  6  2  0  0  0  0
  6  1  1  0  0  0  0
  7  6  1  0  0  0  0
  8  7  2  0  0  0  0
  9  8  1  0  0  0  0
 10  9  2  0  0  0  0
 10  5  1  0  0  0  0
 12 11  2  0  0  0  0
 13 12  1  0  0  0  0
 13 18  2  0  0  0  0
 14 13  1  0  0  0  0
 15 14  2  0  0  0  0
 16 14  2  0  0  0  0
 17 14  1  0  0  0  0
 18 19  1  0  0  0  0
 19 20  2  0  0  0  0
 20 11  1  0  0  0  0
 21 18  1  0  0  0  0
M  END
>  <DATABASE_ID>
DB08046

>  <DATABASE_NAME>
drugbank

>  <SMILES>
NS(=O)(=O)C1=C(Cl)C=CC(=C1)[C@@]1(O)NC(=O)C2=C1C=CC=C2

>  <INCHI_IDENTIFIER>
InChI=1S/C14H11ClN2O4S/c15-11-6-5-8(7-12(11)22(16,20)21)14(19)10-4-2-1-3-9(10)13(18)17-14/h1-7,19H,(H,17,18)(H2,16,20,21)/t14-/m0/s1

>  <INCHI_KEY>
JIVPVXMEBJLZRO-AWEZNQCLSA-N

>  <FORMULA>
C14H11ClN2O4S

>  <MOLECULAR_WEIGHT>
338.766

>  <EXACT_MASS>
338.012805247

>  <JCHEM_ACCEPTOR_COUNT>
4

>  <JCHEM_ATOM_COUNT>
33

>  <JCHEM_AVERAGE_NEUTRAL_MICROSPECIES_CHARGE>
-0.024791313530943063

>  <JCHEM_AVERAGE_POLARIZABILITY>
30.884002613133777

>  <JCHEM_BIOAVAILABILITY>
1

>  <JCHEM_DONOR_COUNT>
3

>  <JCHEM_FORMAL_CHARGE>
0

>  <JCHEM_GHOSE_FILTER>
1

>  <JCHEM_IUPAC>
2-chloro-5-[(1S)-1-hydroxy-3-oxo-2,3-dihydro-1H-isoindol-1-yl]benzene-1-sulfonamide

>  <ALOGPS_LOGP>
1.27

>  <JCHEM_LOGP>
1.6034210690000001

>  <ALOGPS_LOGS>
-3.81

>  <JCHEM_MDDR_LIKE_RULE>
0

>  <JCHEM_NEUTRAL_CHARGE>
0

>  <JCHEM_NUMBER_OF_RINGS>
3

>  <JCHEM_PHYSIOLOGICAL_CHARGE>
0

>  <JCHEM_PKA>
9.37161790987332

>  <JCHEM_PKA_STRONGEST_ACIDIC>
8.761804717435925

>  <JCHEM_PKA_STRONGEST_BASIC>
-2.5879178440175767

>  <JCHEM_POLAR_SURFACE_AREA>
109.49000000000001

>  <JCHEM_REFRACTIVITY>
81.30050000000001

>  <JCHEM_ROTATABLE_BOND_COUNT>
2

>  <JCHEM_RULE_OF_FIVE>
1

>  <ALOGPS_SOLUBILITY>
5.28e-02 g/l

>  <JCHEM_TRADITIONAL_IUPAC>
2-methoxy-4-vinyl-phenol

>  <JCHEM_VEBER_RULE>
0

>  <DRUGBANK_ID>
DB08046

>  <DRUG_GROUPS>
experimental

>  <GENERIC_NAME>
2-chloro-5-[(1S)-1-hydroxy-3-oxo-2H-isoindol-1-yl]benzenesulfonamide

$$$$
JN5
 OpenBabel05042401512D

 28 31  0  0  0  0  0  0  0  0999 V2000
   -3.0567   -1.9425    0.0000 C   0  0  0  0  0  0  0  0  0  0  0  0
   -3.4692   -2.6570    0.0000 C   0  0  0  0  0  0  0  0  0  0  0  0
   -4.2942   -2.6570    0.0000 C   0  0  0  0  0  0  0  0  0  0  0  0
   -4.7067   -1.9425    0.0000 N   0  0  0  0  0  0  0  0  0  0  0  0
   -4.2942   -1.2280    0.0000 C   0  0  0  0  0  0  0  0  0  0  0  0
   -3.4692   -1.2280    0.0000 C   0  0  0  0  0  0  0  0  0  0  0  0
   -3.0567   -0.5135    0.0000 C   0  0  0  0  0  0  0  0  0  0  0  0
   -2.2317   -0.5135    0.0000 C   0  0  0  0  0  0  0  0  0  0  0  0
   -1.8192    0.2009    0.0000 N   0  0  0  0  0  0  0  0  0  0  0  0
   -0.9942    0.2009    0.0000 C   0  0  0  0  0  0  0  0  0  0  0  0
   -0.5817    0.9154    0.0000 N   0  0  0  0  0  0  0  0  0  0  0  0
   -0.5817   -0.5135    0.0000 N   0  0  0  0  0  0  0  0  0  0  0  0
    0.2433   -0.5135    0.0000 C   0  0  0  0  0  0  0  0  0  0  0  0
    0.6558    0.2009    0.0000 C   0  0  0  0  0  0  0  0  0  0  0  0
    0.2433    0.9154    0.0000 C   0  0  0  0  0  0  0  0  0  0  0  0
    0.6558    1.6299    0.0000 C   0  0  0  0  0  0  0  0  0  0  0  0
    0.2433    2.3443    0.0000 C   0  0  0  0  0  0  0  0  0  0  0  0
   -0.1692    3.0588    0.0000 N   0  0  0  0  0  0  0  0  0  0  0  0
    1.4808    1.6299    0.0000 C   0  0  0  0  0  0  0  0  0  0  0  0
    1.9657    2.2973    0.0000 N   0  0  0  0  0  0  0  0  0  0  0  0
    2.7503    2.0424    0.0000 C   0  0  0  0  0  0  0  0  0  0  0  0
    3.4648    2.4549    0.0000 C   0  0  0  0  0  0  0  0  0  0  0  0
    4.1793    2.0424    0.0000 C   0  0  0  0  0  0  0  0  0  0  0  0
    4.1793    1.2174    0.0000 C   0  0  0  0  0  0  0  0  0  0  0  0
    3.4648    0.8049    0.0000 C   0  0  0  0  0  0  0  0  0  0  0  0
    2.7503    1.2174    0.0000 C   0  0  0  0  0  0  0  0  0  0  0  0
    1.9657    0.9624    0.0000 S   0  0  0  0  0  0  0  0  0  0  0  0
    0.9477    1.1242    0.0000 H   0  0  0  0  0  0  0  0  0  0  0  0
  1  2  1  0  0  0  0
  3  2  2  0  0  0  0
  4  3  1  0  0  0  0
  5  4  2  0  0  0  0
  5  6  1  0  0  0  0
  6  1  2  0  0  0  0
  7  6  1  0  0  0  0
  7  8  1  0  0  0  0
  9  8  1  0  0  0  0
  9 10  1  0  0  0  0
 10 11  1  0  0  0  0
 11 15  2  0  0  0  0
 12 10  2  0  0  0  0
 12 13  1  0  0  0  0
 13 14  2  0  0  0  0
 14 15  1  0  0  0  0
 15 16  1  0  0  0  0
 16 19  1  0  0  0  0
 16 17  1  0  0  0  0
 16 28  1  0  0  0  0
 17 18  3  0  0  0  0
 19 20  2  0  0  0  0
 20 21  1  0  0  0  0
 21 22  1  0  0  0  0
 22 23  2  0  0  0  0
 24 23  1  0  0  0  0
 25 24  2  0  0  0  0
 26 21  2  0  0  0  0
 26 25  1  0  0  0  0
 27 19  1  0  0  0  0
 27 26  1  0  0  0  0
M  END
>  <DATABASE_ID>
DB08022

>  <DATABASE_NAME>
drugbank

>  <SMILES>
[H][C@](C#N)(C1=NC2=C(S1)C=CC=C2)C1=NC(NCCC2=CC=CN=C2)=NC=C1

>  <INCHI_IDENTIFIER>
InChI=1S/C20H16N6S/c21-12-15(19-25-17-5-1-2-6-18(17)27-19)16-8-11-24-20(26-16)23-10-7-14-4-3-9-22-13-14/h1-6,8-9,11,13,15H,7,10H2,(H,23,24,26)/t15-/m1/s1

>  <INCHI_KEY>
RCYPVQCPYKNSTG-OAHLLOKOSA-N

>  <FORMULA>
C20H16N6S

>  <MOLECULAR_WEIGHT>
372.446

>  <EXACT_MASS>
372.115715232

>  <JCHEM_ACCEPTOR_COUNT>
6

>  <JCHEM_ATOM_COUNT>
43

>  <JCHEM_AVERAGE_NEUTRAL_MICROSPECIES_CHARGE>
0.027756977664143846

>  <JCHEM_AVERAGE_POLARIZABILITY>
39.09965336160832

>  <JCHEM_BIOAVAILABILITY>
1

>  <JCHEM_DONOR_COUNT>
1

>  <JCHEM_FORMAL_CHARGE>
0

>  <JCHEM_GHOSE_FILTER>
1

>  <JCHEM_IUPAC>
(2S)-2-(1,3-benzothiazol-2-yl)-2-(2-{[2-(pyridin-3-yl)ethyl]amino}pyrimidin-4-yl)acetonitrile

>  <ALOGPS_LOGP>
3.50

>  <JCHEM_LOGP>
3.27287007

>  <ALOGPS_LOGS>
-4.45

>  <JCHEM_MDDR_LIKE_RULE>
1

>  <JCHEM_NEUTRAL_CHARGE>
0

>  <JCHEM_NUMBER_OF_RINGS>
4

>  <JCHEM_PHYSIOLOGICAL_CHARGE>
0

>  <JCHEM_PKA>
17.431880006988738

>  <JCHEM_PKA_STRONGEST_ACIDIC>
9.53440612580877

>  <JCHEM_PKA_STRONGEST_BASIC>
5.49903457931138

>  <JCHEM_POLAR_SURFACE_AREA>
87.38000000000001

>  <JCHEM_REFRACTIVITY>
105.20510000000002

>  <JCHEM_ROTATABLE_BOND_COUNT>
6

>  <JCHEM_RULE_OF_FIVE>
1

>  <ALOGPS_SOLUBILITY>
1.34e-02 g/l

>  <JCHEM_TRADITIONAL_IUPAC>
biotin

>  <JCHEM_VEBER_RULE>
0

>  <DRUGBANK_ID>
DB08022

>  <DRUG_GROUPS>
experimental

>  <GENERIC_NAME>
(2S)-1,3-benzothiazol-2-yl{2-[(2-pyridin-3-ylethyl)amino]pyrimidin-4-yl}ethanenitrile

$$$$
JK3
 OpenBabel05042401512D

 25 27  0  0  0  0  0  0  0  0999 V2000
    1.5560    0.9948    0.0000 Cl  0  0  0  0  0  0  0  0  0  0  0  0
   -1.9799   -1.7060    0.0000 C   0  0  0  0  0  0  0  0  0  0  0  0
   -2.6473   -2.1909    0.0000 C   0  0  0  0  0  0  0  0  0  0  0  0
   -2.3924   -2.9755    0.0000 C   0  0  0  0  0  0  0  0  0  0  0  0
   -1.5674   -2.9755    0.0000 O   0  0  0  0  0  0  0  0  0  0  0  0
   -1.3125   -2.1909    0.0000 C   0  0  0  0  0  0  0  0  0  0  0  0
   -0.5278   -1.9360    0.0000 C   0  0  0  0  0  0  0  0  0  0  0  0
    0.0853   -2.4880    0.0000 O   0  0  0  0  0  0  0  0  0  0  0  0
   -0.3563   -1.1290    0.0000 N   0  0  0  0  0  0  0  0  0  0  0  0
    0.4283   -0.8741    0.0000 C   0  0  0  0  0  0  0  0  0  0  0  0
    1.0414   -1.4261    0.0000 C   0  0  0  0  0  0  0  0  0  0  0  0
    1.8260   -1.1711    0.0000 C   0  0  0  0  0  0  0  0  0  0  0  0
    1.9975   -0.3642    0.0000 C   0  0  0  0  0  0  0  0  0  0  0  0
    1.3845    0.1879    0.0000 C   0  0  0  0  0  0  0  0  0  0  0  0
    0.5998   -0.0671    0.0000 C   0  0  0  0  0  0  0  0  0  0  0  0
   -0.0133    0.4850    0.0000 N   0  0  0  0  0  0  0  0  0  0  0  0
   -0.7979    0.2300    0.0000 C   0  0  0  0  0  0  0  0  0  0  0  0
   -1.4110    0.7820    0.0000 C   0  0  0  0  0  0  0  0  0  0  0  0
    0.1583    1.2919    0.0000 C   0  0  0  0  0  0  0  0  0  0  0  0
   -0.4548    1.8440    0.0000 C   0  0  0  0  0  0  0  0  0  0  0  0
   -1.2395    1.5890    0.0000 N   0  0  0  0  0  0  0  0  0  0  0  0
   -1.8525    2.1411    0.0000 C   0  0  0  0  0  0  0  0  0  0  0  0
   -1.6810    2.9480    0.0000 C   0  0  0  0  0  0  0  0  0  0  0  0
   -1.5095    3.7550    0.0000 C   0  0  0  0  0  0  0  0  0  0  0  0
   -2.8773   -3.6430    0.0000 Br  0  0  0  0  0  0  0  0  0  0  0  0
  2  6  2  0  0  0  0
  3  2  1  0  0  0  0
  3  4  2  0  0  0  0
  4 25  1  0  0  0  0
  4  5  1  0  0  0  0
  6  5  1  0  0  0  0
  6  7  1  0  0  0  0
  7  9  1  0  0  0  0
  8  7  2  0  0  0  0
  9 10  1  0  0  0  0
 10 15  1  0  0  0  0
 11 10  2  0  0  0  0
 11 12  1  0  0  0  0
 12 13  2  0  0  0  0
 13 14  1  0  0  0  0
 14  1  1  0  0  0  0
 15 14  2  0  0  0  0
 15 16  1  0  0  0  0
 16 17  1  0  0  0  0
 17 18  1  0  0  0  0
 19 16  1  0  0  0  0
 19 20  1  0  0  0  0
 20 21  1  0  0  0  0
 21 18  1  0  0  0  0
 21 22  1  0  0  0  0
 23 22  1  0  0  0  0
 24 23  3  0  0  0  0
M  END
>  <DATABASE_ID>
DB08021

>  <DATABASE_NAME>
drugbank

>  <SMILES>
ClC1=C(N2CCN(CC#C)CC2)C(NC(=O)C2=CC=C(Br)O2)=CC=C1

>  <INCHI_IDENTIFIER>
InChI=1S/C18H17BrClN3O2/c1-2-8-22-9-11-23(12-10-22)17-13(20)4-3-5-14(17)21-18(24)15-6-7-16(19)25-15/h1,3-7H,8-12H2,(H,21,24)

>  <INCHI_KEY>
MEFJFXHHHNDHEN-UHFFFAOYSA-N

>  <FORMULA>
C18H17BrClN3O2

>  <MOLECULAR_WEIGHT>
422.703

>  <EXACT_MASS>
421.019267157

>  <JCHEM_ACCEPTOR_COUNT>
3

>  <JCHEM_ATOM_COUNT>
42

>  <JCHEM_AVERAGE_NEUTRAL_MICROSPECIES_CHARGE>
0.08238811392696567

>  <JCHEM_AVERAGE_POLARIZABILITY>
39.22527800072701

>  <JCHEM_BIOAVAILABILITY>
1

>  <JCHEM_DONOR_COUNT>
1

>  <JCHEM_FORMAL_CHARGE>
0

>  <JCHEM_GHOSE_FILTER>
1

>  <JCHEM_IUPAC>
5-bromo-N-{3-chloro-2-[4-(prop-2-yn-1-yl)piperazin-1-yl]phenyl}furan-2-carboxamide

>  <ALOGPS_LOGP>
3.50

>  <JCHEM_LOGP>
3.3817765439999996

>  <ALOGPS_LOGS>
-3.79

>  <JCHEM_MDDR_LIKE_RULE>
0

>  <JCHEM_NEUTRAL_CHARGE>
0

>  <JCHEM_NUMBER_OF_RINGS>
3

>  <JCHEM_PHYSIOLOGICAL_CHARGE>
0

>  <JCHEM_PKA_STRONGEST_ACIDIC>
13.224352297715397

>  <JCHEM_PKA_STRONGEST_BASIC>
5.953209021803801

>  <JCHEM_POLAR_SURFACE_AREA>
48.720000000000006

>  <JCHEM_REFRACTIVITY>
104.2509

>  <JCHEM_ROTATABLE_BOND_COUNT>
4

>  <JCHEM_RULE_OF_FIVE>
1

>  <ALOGPS_SOLUBILITY>
6.88e-02 g/l

>  <JCHEM_TRADITIONAL_IUPAC>
tetrahydrofolic acid

>  <JCHEM_VEBER_RULE>
0

>  <DRUGBANK_ID>
DB08021

>  <DRUG_GROUPS>
experimental

>  <GENERIC_NAME>
5-bromo-N-(3-chloro-2-(4-(prop-2-ynyl)piperazin-1-yl)phenyl)furan-2-carboxamide

$$$$
IIE
 OpenBabel05042401512D

 32 35  0  0  0  0  0  0  0  0999 V2000
    2.8867    0.2642    0.0000 C   0  0  0  0  0  0  0  0  0  0  0  0
    2.1722   -0.1483    0.0000 C   0  0  0  0  0  0  0  0  0  0  0  0
    1.4578    0.2642    0.0000 C   0  0  0  0  0  0  0  0  0  0  0  0
    1.4578    1.0892    0.0000 C   0  0  0  0  0  0  0  0  0  0  0  0
    2.1722    1.5017    0.0000 C   0  0  0  0  0  0  0  0  0  0  0  0
    2.8867    1.0892    0.0000 C   0  0  0  0  0  0  0  0  0  0  0  0
    0.6731    0.0093    0.0000 N   0  0  0  0  0  0  0  0  0  0  0  0
    0.1882    0.6767    0.0000 C   0  0  0  0  0  0  0  0  0  0  0  0
    0.6731    1.3442    0.0000 C   0  0  0  0  0  0  0  0  0  0  0  0
   -0.6368    0.6767    0.0000 C   0  0  0  0  0  0  0  0  0  0  0  0
   -1.0493    1.3912    0.0000 N   0  0  0  0  0  0  0  0  0  0  0  0
   -1.8743    1.3912    0.0000 C   0  0  0  0  0  0  0  0  0  0  0  0
   -2.2868    0.6767    0.0000 C   0  0  0  0  0  0  0  0  0  0  0  0
   -3.1118    0.6767    0.0000 C   0  0  0  0  0  0  0  0  0  0  0  0
   -3.5243    1.3912    0.0000 N   0  0  0  0  0  0  0  0  0  0  0  0
   -3.1118    2.1057    0.0000 C   0  0  0  0  0  0  0  0  0  0  0  0
   -2.2868    2.1057    0.0000 C   0  0  0  0  0  0  0  0  0  0  0  0
   -4.3493    1.3912    0.0000 C   0  0  0  0  0  0  0  0  0  0  0  0
   -4.7618    2.1057    0.0000 C   0  0  0  0  0  0  0  0  0  0  0  0
   -4.7618    0.6767    0.0000 C   0  0  0  0  0  0  0  0  0  0  0  0
    0.4182   -0.7753    0.0000 C   0  0  0  0  0  0  0  0  0  0  0  0
    0.9702   -1.3884    0.0000 C   0  0  0  0  0  0  0  0  0  0  0  0
    2.0743   -2.6146    0.0000 C   0  0  0  0  0  0  0  0  0  0  0  0
    2.6263   -3.2277    0.0000 C   0  0  0  0  0  0  0  0  0  0  0  0
    1.2673   -2.7861    0.0000 C   0  0  0  0  0  0  0  0  0  0  0  0
    2.3714   -4.0123    0.0000 C   0  0  0  0  0  0  0  0  0  0  0  0
    1.5644   -4.1838    0.0000 C   0  0  0  0  0  0  0  0  0  0  0  0
    1.0124   -3.5707    0.0000 C   0  0  0  0  0  0  0  0  0  0  0  0
    0.7153   -2.1730    0.0000 N   0  0  0  0  0  0  0  0  0  0  0  0
    1.7772   -1.2169    0.0000 O   0  0  0  0  0  0  0  0  0  0  0  0
    2.9234   -4.6254    0.0000 Cl  0  0  0  0  0  0  0  0  0  0  0  0
   -1.0493   -0.0377    0.0000 O   0  0  0  0  0  0  0  0  0  0  0  0
  1  2  2  0  0  0  0
  1  6  1  0  0  0  0
  2  3  1  0  0  0  0
  3  4  2  0  0  0  0
  3  7  1  0  0  0  0
  4  5  1  0  0  0  0
  4  9  1  0  0  0  0
  5  6  2  0  0  0  0
  7  8  1  0  0  0  0
  7 21  1  0  0  0  0
  8  9  2  0  0  0  0
  8 10  1  0  0  0  0
 10 11  1  0  0  0  0
 10 32  2  0  0  0  0
 11 12  1  0  0  0  0
 12 13  1  0  0  0  0
 12 17  1  0  0  0  0
 13 14  1  0  0  0  0
 14 15  1  0  0  0  0
 15 16  1  0  0  0  0
 15 18  1  0  0  0  0
 16 17  1  0  0  0  0
 18 19  1  0  0  0  0
 18 20  1  0  0  0  0
 21 22  1  0  0  0  0
 22 29  1  0  0  0  0
 22 30  2  0  0  0  0
 23 24  1  0  0  0  0
 23 25  2  0  0  0  0
 24 26  2  0  0  0  0
 25 28  1  0  0  0  0
 25 29  1  0  0  0  0
 26 27  1  0  0  0  0
 26 31  1  0  0  0  0
 27 28  2  0  0  0  0
M  END
>  <DATABASE_ID>
DB07974

>  <DATABASE_NAME>
drugbank

>  <SMILES>
CC(C)N1CCC(CC1)NC(=O)C1=CC2=C(C=CC=C2)N1CC(=O)NC1=CC=C(Cl)C=C1

>  <INCHI_IDENTIFIER>
InChI=1S/C25H29ClN4O2/c1-17(2)29-13-11-21(12-14-29)28-25(32)23-15-18-5-3-4-6-22(18)30(23)16-24(31)27-20-9-7-19(26)8-10-20/h3-10,15,17,21H,11-14,16H2,1-2H3,(H,27,31)(H,28,32)

>  <INCHI_KEY>
BDLMBQRBNPDCSS-UHFFFAOYSA-N

>  <FORMULA>
C25H29ClN4O2

>  <MOLECULAR_WEIGHT>
452.976

>  <EXACT_MASS>
452.197903899

>  <JCHEM_ACCEPTOR_COUNT>
3

>  <JCHEM_ATOM_COUNT>
61

>  <JCHEM_AVERAGE_NEUTRAL_MICROSPECIES_CHARGE>
0.9929350416095759

>  <JCHEM_AVERAGE_POLARIZABILITY>
48.523450418590166

>  <JCHEM_BIOAVAILABILITY>
1

>  <JCHEM_DONOR_COUNT>
2

>  <JCHEM_FORMAL_CHARGE>
0

>  <JCHEM_GHOSE_FILTER>
1

>  <JCHEM_IUPAC>
1-{[(4-chlorophenyl)carbamoyl]methyl}-N-[1-(propan-2-yl)piperidin-4-yl]-1H-indole-2-carboxamide

>  <ALOGPS_LOGP>
4.49

>  <JCHEM_LOGP>
3.606520346999999

>  <ALOGPS_LOGS>
-4.81

>  <JCHEM_MDDR_LIKE_RULE>
1

>  <JCHEM_NEUTRAL_CHARGE>
1

>  <JCHEM_NUMBER_OF_RINGS>
4

>  <JCHEM_PHYSIOLOGICAL_CHARGE>
1

>  <JCHEM_PKA>
15.981076241661496

>  <JCHEM_PKA_STRONGEST_ACIDIC>
13.290607929923517

>  <JCHEM_PKA_STRONGEST_BASIC>
9.147842450751188

>  <JCHEM_POLAR_SURFACE_AREA>
66.37

>  <JCHEM_REFRACTIVITY>
129.679

>  <JCHEM_ROTATABLE_BOND_COUNT>
6

>  <JCHEM_RULE_OF_FIVE>
1

>  <ALOGPS_SOLUBILITY>
6.97e-03 g/l

>  <JCHEM_TRADITIONAL_IUPAC>
tetrahydrofolic acid

>  <JCHEM_VEBER_RULE>
0

>  <DRUGBANK_ID>
DB07974

>  <DRUG_GROUPS>
experimental

>  <GENERIC_NAME>
1-{2-[(4-CHLOROPHENYL)AMINO]-2-OXOETHYL}-N-(1-ISOPROPYLPIPERIDIN-4-YL)-1H-INDOLE-2-CARBOXAMIDE

$$$$
HQC
 OpenBabel05042401512D

 36 38  0  0  0  0  0  0  0  0999 V2000
   -3.2299   -1.2306    0.0000 O   0  0  0  0  0  0  0  0  0  0  0  0
   -3.9444   -0.8181    0.0000 C   0  0  0  0  0  0  0  0  0  0  0  0
   -3.9444    0.0069    0.0000 C   0  0  0  0  0  0  0  0  0  0  0  0
   -4.6589    0.4194    0.0000 C   0  0  0  0  0  0  0  0  0  0  0  0
   -5.3733    0.0069    0.0000 C   0  0  0  0  0  0  0  0  0  0  0  0
   -6.0878    0.4194    0.0000 O   0  0  0  0  0  0  0  0  0  0  0  0
   -5.3733   -0.8181    0.0000 O   0  0  0  0  0  0  0  0  0  0  0  0
   -3.2299    0.4194    0.0000 N   0  0  0  0  0  0  0  0  0  0  0  0
   -2.5155    0.0069    0.0000 C   0  0  0  0  0  0  0  0  0  0  0  0
   -2.5155   -0.8181    0.0000 O   0  0  0  0  0  0  0  0  0  0  0  0
   -1.8010    0.4194    0.0000 C   0  0  0  0  0  0  0  0  0  0  0  0
   -1.8010    1.2444    0.0000 C   0  0  0  0  0  0  0  0  0  0  0  0
   -2.4684    1.7293    0.0000 S   0  0  0  0  0  0  0  0  0  0  0  0
   -2.2135    2.5140    0.0000 C   0  0  0  0  0  0  0  0  0  0  0  0
   -1.3885    2.5140    0.0000 C   0  0  0  0  0  0  0  0  0  0  0  0
   -1.1336    1.7293    0.0000 C   0  0  0  0  0  0  0  0  0  0  0  0
   -1.0865    0.0069    0.0000 C   0  0  0  0  0  0  0  0  0  0  0  0
   -0.3721    0.4194    0.0000 C   0  0  0  0  0  0  0  0  0  0  0  0
    0.3424    0.0069    0.0000 C   0  0  0  0  0  0  0  0  0  0  0  0
    1.0569    0.4194    0.0000 C   0  0  0  0  0  0  0  0  0  0  0  0
    1.7714    0.0069    0.0000 N   0  0  0  0  0  0  0  0  0  0  0  0
    2.4858    0.4194    0.0000 C   0  0  0  0  0  0  0  0  0  0  0  0
    2.4858    1.2444    0.0000 O   0  0  0  0  0  0  0  0  0  0  0  0
    3.2003    0.0069    0.0000 C   0  0  0  0  0  0  0  0  0  0  0  0
    3.2003   -0.8181    0.0000 N   0  0  0  0  0  0  0  0  0  0  0  0
    3.9148    0.4194    0.0000 C   0  0  0  0  0  0  0  0  0  0  0  0
    4.6292    0.0069    0.0000 C   0  0  0  0  0  0  0  0  0  0  0  0
    4.6292   -0.8181    0.0000 C   0  0  0  0  0  0  0  0  0  0  0  0
    5.3437   -1.2306    0.0000 C   0  0  0  0  0  0  0  0  0  0  0  0
    3.9148   -1.2306    0.0000 C   0  0  0  0  0  0  0  0  0  0  0  0
    3.9148   -2.0556    0.0000 C   0  0  0  0  0  0  0  0  0  0  0  0
    3.2003   -2.4681    0.0000 O   0  0  0  0  0  0  0  0  0  0  0  0
    4.6292   -2.4681    0.0000 C   0  0  0  0  0  0  0  0  0  0  0  0
    5.3437   -2.0556    0.0000 C   0  0  0  0  0  0  0  0  0  0  0  0
   -4.4501   -0.2850    0.0000 H   0  0  0  0  0  0  0  0  0  0  0  0
   -2.3067    0.7114    0.0000 H   0  0  0  0  0  0  0  0  0  0  0  0
  1  2  2  0  0  0  0
  2  3  1  0  0  0  0
  3  4  1  0  0  0  0
  3  8  1  0  0  0  0
  3 35  1  0  0  0  0
  4  5  1  0  0  0  0
  5  6  2  0  0  0  0
  5  7  1  0  0  0  0
  8  9  1  0  0  0  0
  9 10  2  0  0  0  0
  9 11  1  0  0  0  0
 11 12  1  0  0  0  0
 11 17  1  0  0  0  0
 11 36  1  0  0  0  0
 12 13  1  0  0  0  0
 12 16  2  0  0  0  0
 13 14  1  0  0  0  0
 14 15  2  0  0  0  0
 15 16  1  0  0  0  0
 17 18  1  0  0  0  0
 18 19  1  0  0  0  0
 19 20  1  0  0  0  0
 20 21  1  0  0  0  0
 21 22  1  0  0  0  0
 22 23  2  0  0  0  0
 22 24  1  0  0  0  0
 24 25  2  0  0  0  0
 24 26  1  0  0  0  0
 25 30  1  0  0  0  0
 26 27  2  0  0  0  0
 27 28  1  0  0  0  0
 28 29  1  0  0  0  0
 28 30  2  0  0  0  0
 29 34  2  0  0  0  0
 30 31  1  0  0  0  0
 31 32  1  0  0  0  0
 31 33  2  0  0  0  0
 33 34  1  0  0  0  0
M  END
>  <DATABASE_ID>
DB07916

>  <DATABASE_NAME>
drugbank

>  <SMILES>
[H][C@@](CC(O)=O)(NC(=O)[C@@]([H])(CCCCNC(=O)C1=NC2=C(C=CC=C2O)C=C1)C1=CC=CS1)C=O

>  <INCHI_IDENTIFIER>
InChI=1S/C24H25N3O6S/c28-14-16(13-21(30)31)26-23(32)17(20-8-4-12-34-20)6-1-2-11-25-24(33)18-10-9-15-5-3-7-19(29)22(15)27-18/h3-5,7-10,12,14,16-17,29H,1-2,6,11,13H2,(H,25,33)(H,26,32)(H,30,31)/t16-,17-/m0/s1

>  <INCHI_KEY>
QXMPYGCWDMKRMF-IRXDYDNUSA-N

>  <FORMULA>
C24H25N3O6S

>  <MOLECULAR_WEIGHT>
483.537

>  <EXACT_MASS>
483.146406237

>  <JCHEM_ACCEPTOR_COUNT>
7

>  <JCHEM_ATOM_COUNT>
59

>  <JCHEM_AVERAGE_NEUTRAL_MICROSPECIES_CHARGE>
-1.0019578853745759

>  <JCHEM_AVERAGE_POLARIZABILITY>
49.9616619813196

>  <JCHEM_BIOAVAILABILITY>
1

>  <JCHEM_DONOR_COUNT>
4

>  <JCHEM_FORMAL_CHARGE>
0

>  <JCHEM_GHOSE_FILTER>
0

>  <JCHEM_IUPAC>
(3S)-3-[(2R)-6-[(8-hydroxyquinolin-2-yl)formamido]-2-(thiophen-2-yl)hexanamido]-4-oxobutanoic acid

>  <ALOGPS_LOGP>
2.39

>  <JCHEM_LOGP>
2.4330208793333337

>  <ALOGPS_LOGS>
-5.06

>  <JCHEM_MDDR_LIKE_RULE>
1

>  <JCHEM_NEUTRAL_CHARGE>
-1

>  <JCHEM_NUMBER_OF_RINGS>
3

>  <JCHEM_PHYSIOLOGICAL_CHARGE>
-1

>  <JCHEM_PKA>
9.19302643754795

>  <JCHEM_PKA_STRONGEST_ACIDIC>
4.646935292712797

>  <JCHEM_PKA_STRONGEST_BASIC>
1.856454122142738

>  <JCHEM_POLAR_SURFACE_AREA>
145.69

>  <JCHEM_REFRACTIVITY>
124.27109999999998

>  <JCHEM_ROTATABLE_BOND_COUNT>
12

>  <JCHEM_RULE_OF_FIVE>
1

>  <ALOGPS_SOLUBILITY>
4.18e-03 g/l

>  <JCHEM_TRADITIONAL_IUPAC>
biotin

>  <JCHEM_VEBER_RULE>
0

>  <DRUGBANK_ID>
DB07916

>  <DRUG_GROUPS>
experimental

>  <GENERIC_NAME>
3-{6-[(8-HYDROXY-QUINOLINE-2-CARBONYL)-AMINO]-2-THIOPHEN-2-YL-HEXANOYLAMINO}-4-OXO-BUTYRI ACID

$$$$
HA3
 OpenBabel05042401512D

 26 29  0  0  0  0  0  0  0  0999 V2000
    8.5222   -5.6124    0.0000 C   0  0  0  0  0  0  0  0  0  0  0  0
    8.2672   -6.3970    0.0000 C   0  0  0  0  0  0  0  0  0  0  0  0
    7.4603   -6.5685    0.0000 C   0  0  0  0  0  0  0  0  0  0  0  0
    6.9082   -5.9554    0.0000 C   0  0  0  0  0  0  0  0  0  0  0  0
    7.1632   -5.1708    0.0000 C   0  0  0  0  0  0  0  0  0  0  0  0
    7.9701   -4.9993    0.0000 C   0  0  0  0  0  0  0  0  0  0  0  0
    8.2251   -4.2147    0.0000 C   0  0  0  0  0  0  0  0  0  0  0  0
    7.7402   -3.5472    0.0000 C   0  0  0  0  0  0  0  0  0  0  0  0
    8.2251   -2.8798    0.0000 N   0  0  0  0  0  0  0  0  0  0  0  0
    9.0097   -3.1347    0.0000 C   0  0  0  0  0  0  0  0  0  0  0  0
    9.7242   -2.7222    0.0000 C   0  0  0  0  0  0  0  0  0  0  0  0
    9.0097   -3.9597    0.0000 N   0  0  0  0  0  0  0  0  0  0  0  0
    9.7242   -4.3722    0.0000 C   0  0  0  0  0  0  0  0  0  0  0  0
   10.4386   -3.9597    0.0000 C   0  0  0  0  0  0  0  0  0  0  0  0
   10.4386   -3.1347    0.0000 N   0  0  0  0  0  0  0  0  0  0  0  0
   11.1531   -2.7222    0.0000 C   0  0  0  0  0  0  0  0  0  0  0  0
   11.1531   -1.8972    0.0000 O   0  0  0  0  0  0  0  0  0  0  0  0
   11.8676   -3.1347    0.0000 C   0  0  0  0  0  0  0  0  0  0  0  0
   12.6213   -2.7992    0.0000 S   0  0  0  0  0  0  0  0  0  0  0  0
   11.9538   -3.9552    0.0000 C   0  0  0  0  0  0  0  0  0  0  0  0
   12.7608   -4.1267    0.0000 C   0  0  0  0  0  0  0  0  0  0  0  0
   13.1733   -3.4123    0.0000 C   0  0  0  0  0  0  0  0  0  0  0  0
   13.9938   -3.3260    0.0000 C   0  0  0  0  0  0  0  0  0  0  0  0
   14.3293   -2.5724    0.0000 O   0  0  0  0  0  0  0  0  0  0  0  0
   14.4787   -3.9935    0.0000 N   0  0  0  0  0  0  0  0  0  0  0  0
   15.2992   -3.9072    0.0000 O   0  0  0  0  0  0  0  0  0  0  0  0
  1  2  1  0  0  0  0
  1  6  2  0  0  0  0
  2  3  2  0  0  0  0
  3  4  1  0  0  0  0
  4  5  2  0  0  0  0
  5  6  1  0  0  0  0
  6  7  1  0  0  0  0
  7  8  2  0  0  0  0
  7 12  1  0  0  0  0
  8  9  1  0  0  0  0
  9 10  2  0  0  0  0
 10 11  1  0  0  0  0
 10 12  1  0  0  0  0
 11 15  1  0  0  0  0
 12 13  1  0  0  0  0
 13 14  1  0  0  0  0
 14 15  1  0  0  0  0
 15 16  1  0  0  0  0
 16 17  2  0  0  0  0
 16 18  1  0  0  0  0
 18 19  1  0  0  0  0
 18 20  2  0  0  0  0
 19 22  1  0  0  0  0
 20 21  1  0  0  0  0
 21 22  2  0  0  0  0
 22 23  1  0  0  0  0
 23 24  2  0  0  0  0
 23 25  1  0  0  0  0
 25 26  1  0  0  0  0
M  END
>  <DATABASE_ID>
DB07879

>  <DATABASE_NAME>
drugbank

>  <SMILES>
ONC(=O)C1=CC=C(S1)C(=O)N1CCN2C(C1)=NC=C2C1=CC=CC=C1

>  <INCHI_IDENTIFIER>
InChI=1S/C18H16N4O3S/c23-17(20-25)14-6-7-15(26-14)18(24)21-8-9-22-13(10-19-16(22)11-21)12-4-2-1-3-5-12/h1-7,10,25H,8-9,11H2,(H,20,23)

>  <INCHI_KEY>
SMSIXMLQOONOQQ-UHFFFAOYSA-N

>  <FORMULA>
C18H16N4O3S

>  <MOLECULAR_WEIGHT>
368.41

>  <EXACT_MASS>
368.094311088

>  <JCHEM_ACCEPTOR_COUNT>
4

>  <JCHEM_ATOM_COUNT>
42

>  <JCHEM_AVERAGE_NEUTRAL_MICROSPECIES_CHARGE>
0.00709444216938172

>  <JCHEM_AVERAGE_POLARIZABILITY>
38.728509221234994

>  <JCHEM_BIOAVAILABILITY>
1

>  <JCHEM_DONOR_COUNT>
2

>  <JCHEM_FORMAL_CHARGE>
0

>  <JCHEM_GHOSE_FILTER>
1

>  <JCHEM_IUPAC>
N-hydroxy-5-{3-phenyl-5H,6H,7H,8H-imidazo[1,2-a]pyrazine-7-carbonyl}thiophene-2-carboxamide

>  <ALOGPS_LOGP>
1.72

>  <JCHEM_LOGP>
1.4625647559999995

>  <ALOGPS_LOGS>
-3.03

>  <JCHEM_MDDR_LIKE_RULE>
0

>  <JCHEM_NEUTRAL_CHARGE>
0

>  <JCHEM_NUMBER_OF_RINGS>
4

>  <JCHEM_PHYSIOLOGICAL_CHARGE>
0

>  <JCHEM_PKA>
17.98464061699912

>  <JCHEM_PKA_STRONGEST_ACIDIC>
8.382892500185509

>  <JCHEM_PKA_STRONGEST_BASIC>
5.692386500392273

>  <JCHEM_POLAR_SURFACE_AREA>
87.46000000000001

>  <JCHEM_REFRACTIVITY>
97.2826

>  <JCHEM_ROTATABLE_BOND_COUNT>
3

>  <JCHEM_RULE_OF_FIVE>
1

>  <ALOGPS_SOLUBILITY>
3.46e-01 g/l

>  <JCHEM_TRADITIONAL_IUPAC>
tetrahydrofolic acid

>  <JCHEM_VEBER_RULE>
0

>  <DRUGBANK_ID>
DB07879

>  <DRUG_GROUPS>
experimental

>  <GENERIC_NAME>
N-hydroxy-5-[(3-phenyl-5,6-dihydroimidazo[1,2-a]pyrazin-7(8H)-yl)carbonyl]thiophene-2-carboxamide

$$$$

 OpenBabel05042401512D

 29 33  0  0  1  0  0  0  0  0999 V2000
    0.8761   -3.7687    0.0000 N   0  0  0  0  0  0  0  0  0  0  0  0
    0.0691   -3.5972    0.0000 N   0  0  0  0  0  0  0  0  0  0  0  0
   -0.7316   -2.3642    0.0000 N   0  0  0  0  0  0  0  0  0  0  0  0
   -0.0170   -1.1266    0.0000 N   0  0  0  0  0  0  0  0  0  0  0  0
   -0.7316    0.1108    0.0000 N   0  0  0  0  0  0  0  0  0  0  0  0
    0.6974    0.1108    0.0000 N   0  0  0  0  0  0  0  0  0  0  0  0
    2.1263    4.2360    0.0000 N   0  0  0  0  0  0  0  0  0  0  0  0
    2.1092   -2.9680    0.0000 C   0  0  0  0  0  0  0  0  0  0  0  0
    2.8628   -3.3036    0.0000 C   0  0  0  0  0  0  0  0  0  0  0  0
    2.7766   -2.4831    0.0000 C   0  0  0  0  0  0  0  0  0  0  0  0
    1.2886   -3.0542    0.0000 C   0  0  0  0  0  0  0  0  0  0  0  0
    0.7365   -2.4411    0.0000 C   0  0  0  0  0  0  0  0  0  0  0  0
   -0.0170   -2.7767    0.0000 C   0  0  0  0  0  0  0  0  0  0  0  0
   -0.7316   -1.5391    0.0000 C   0  0  0  0  0  0  0  0  0  0  0  0
   -1.4461   -1.1266    0.0000 C   0  0  0  0  0  0  0  0  0  0  0  0
    0.6974    2.5860    0.0000 C   0  0  3  0  0  0  0  0  0  0  0  0
   -1.4461   -0.3016    0.0000 C   0  0  0  0  0  0  0  0  0  0  0  0
   -2.1836   -1.5677    0.0000 C   0  0  0  0  0  0  0  0  0  0  0  0
   -0.0170   -0.3016    0.0000 C   0  0  0  0  0  0  0  0  0  0  0  0
    1.4118    2.1734    0.0000 C   0  0  0  0  0  0  0  0  0  0  0  0
   -0.0170    2.1734    0.0000 C   0  0  0  0  0  0  0  0  0  0  0  0
    0.6974    0.9359    0.0000 C   0  0  0  0  0  0  0  0  0  0  0  0
    0.6974    3.4110    0.0000 C   0  0  0  0  0  0  0  0  0  0  0  0
   -2.1836    0.1395    0.0000 C   0  0  0  0  0  0  0  0  0  0  0  0
    1.4118    1.3484    0.0000 C   0  0  0  0  0  0  0  0  0  0  0  0
   -0.0170    1.3484    0.0000 C   0  0  0  0  0  0  0  0  0  0  0  0
   -2.9312   -1.1438    0.0000 C   0  0  0  0  0  0  0  0  0  0  0  0
   -2.9312   -0.2844    0.0000 C   0  0  0  0  0  0  0  0  0  0  0  0
    1.4118    3.8235    0.0000 C   0  0  0  0  0  0  0  0  0  0  0  0
  1  2  1  0  0  0  0
  1 11  1  0  0  0  0
  2 13  2  0  0  0  0
  3 13  1  0  0  0  0
  3 14  1  0  0  0  0
  4 14  2  0  0  0  0
  4 19  1  0  0  0  0
  5 17  1  0  0  0  0
  5 19  2  0  0  0  0
  6 19  1  0  0  0  0
  6 22  2  0  0  0  0
  7 29  3  0  0  0  0
  8  9  1  0  0  0  0
  8 10  1  0  0  0  0
  8 11  1  0  0  0  0
  9 10  1  0  0  0  0
 11 12  2  0  0  0  0
 12 13  1  0  0  0  0
 14 15  1  0  0  0  0
 15 17  1  0  0  0  0
 15 18  2  0  0  0  0
 16 20  1  0  0  0  0
 16 21  1  0  0  0  0
 16 23  1  0  0  0  0
 17 24  2  0  0  0  0
 18 27  1  0  0  0  0
 20 25  2  0  0  0  0
 21 26  2  0  0  0  0
 22 25  1  0  0  0  0
 22 26  1  0  0  0  0
 23 29  1  0  0  0  0
 24 28  1  0  0  0  0
 27 28  2  0  0  0  0
M  END
>  <DATABASE_ID>
DB07853

>  <DATABASE_NAME>
drugbank

>  <SMILES>
N#CCC1C=CC(C=C1)=NC1=NC2=CC=CC=C2C(NC2=NNC(=C2)C2CC2)=N1

>  <INCHI_IDENTIFIER>
InChI=1S/C22H19N7/c23-12-11-14-5-9-16(10-6-14)24-22-25-18-4-2-1-3-17(18)21(27-22)26-20-13-19(28-29-20)15-7-8-15/h1-6,9-10,13-15H,7-8,11H2,(H2,25,26,27,28,29)/b24-16-

>  <INCHI_KEY>
AWMNWCNUTIFHRJ-JLPGSUDCSA-N

>  <FORMULA>
C22H19N7

>  <MOLECULAR_WEIGHT>
381.4332

>  <EXACT_MASS>
381.170193643

>  <JCHEM_ACCEPTOR_COUNT>
6

>  <JCHEM_ATOM_COUNT>
48

>  <JCHEM_AVERAGE_POLARIZABILITY>
41.81488809955626

>  <JCHEM_BIOAVAILABILITY>
1

>  <JCHEM_DONOR_COUNT>
2

>  <JCHEM_FORMAL_CHARGE>
0

>  <JCHEM_GHOSE_FILTER>
1

>  <JCHEM_IUPAC>
2-[4-({4-[(5-cyclopropyl-1H-pyrazol-3-yl)amino]quinazolin-2-yl}imino)cyclohexa-2,5-dien-1-yl]acetonitrile

>  <ALOGPS_LOGP>
4.44

>  <JCHEM_LOGP>
4.801852888333334

>  <ALOGPS_LOGS>
-4.30

>  <JCHEM_MDDR_LIKE_RULE>
0

>  <JCHEM_NUMBER_OF_RINGS>
5

>  <JCHEM_PHYSIOLOGICAL_CHARGE>
0

>  <JCHEM_PKA>
12.37194233077424

>  <JCHEM_PKA_STRONGEST_ACIDIC>
9.588288673812237

>  <JCHEM_PKA_STRONGEST_BASIC>
3.4253406186235713

>  <JCHEM_POLAR_SURFACE_AREA>
102.64000000000001

>  <JCHEM_REFRACTIVITY>
116.8061

>  <JCHEM_ROTATABLE_BOND_COUNT>
5

>  <JCHEM_RULE_OF_FIVE>
1

>  <ALOGPS_SOLUBILITY>
1.93e-02 g/l

>  <JCHEM_TRADITIONAL_IUPAC>
(2S)-N-[(5aR,6aS,7S,10aS)-9-carbamoyl-7-(dimethylamino)-4-fluoro-1,8,10a,11-tetrahydroxy-10,12-dioxo-5a,6,6a,7-tetrahydro-5H-tetracen-2-yl]-1-methylpyrrolidine-2-carboxamide

>  <JCHEM_VEBER_RULE>
0

>  <DRUGBANK_ID>
DB07853

>  <DRUG_GROUPS>
experimental

>  <GENERIC_NAME>
2-[4-[4-[(5-cyclopropyl-1H-pyrazol-3-yl)amino]quinazolin-2-yl]iminocyclohexa-2,5-dien-1-yl]acetonitrile

$$$$
GS6
 OpenBabel05042401512D

 32 35  0  0  1  0  0  0  0  0999 V2000
    5.0241   -1.8077    0.0000 Cl  0  0  0  0  0  0  0  0  0  0  0  0
    4.3096   -1.3952    0.0000 C   0  0  0  0  0  0  0  0  0  0  0  0
    3.5952   -1.8077    0.0000 C   0  0  0  0  0  0  0  0  0  0  0  0
    2.8807   -1.3952    0.0000 C   0  0  0  0  0  0  0  0  0  0  0  0
    2.8807   -0.5702    0.0000 C   0  0  0  0  0  0  0  0  0  0  0  0
    2.0961   -0.3153    0.0000 C   0  0  0  0  0  0  0  0  0  0  0  0
    3.5952   -0.1577    0.0000 C   0  0  0  0  0  0  0  0  0  0  0  0
    4.3096   -0.5702    0.0000 C   0  0  0  0  0  0  0  0  0  0  0  0
    1.6112   -0.9827    0.0000 C   0  0  0  0  0  0  0  0  0  0  0  0
    0.7862   -0.9827    0.0000 S   0  0  0  0  0  0  0  0  0  0  0  0
    0.7862   -0.1577    0.0000 O   0  0  0  0  0  0  0  0  0  0  0  0
    0.7862   -1.8077    0.0000 O   0  0  0  0  0  0  0  0  0  0  0  0
   -0.0388   -0.9827    0.0000 N   0  0  0  0  0  0  0  0  0  0  0  0
   -0.4513   -1.6972    0.0000 C   0  0  1  0  0  0  0  0  0  0  0  0
   -0.1158   -2.4508    0.0000 C   0  0  0  0  0  0  0  0  0  0  0  0
   -0.7289   -3.0029    0.0000 C   0  0  0  0  0  0  0  0  0  0  0  0
   -1.2718   -1.7834    0.0000 C   0  0  0  0  0  0  0  0  0  0  0  0
   -1.8239   -1.1703    0.0000 O   0  0  0  0  0  0  0  0  0  0  0  0
   -1.4433   -2.5904    0.0000 N   0  0  0  0  0  0  0  0  0  0  0  0
   -2.1970   -2.9259    0.0000 C   0  0  1  0  0  0  0  0  0  0  0  0
   -2.8645   -2.4410    0.0000 C   0  0  0  0  0  0  0  0  0  0  0  0
   -2.2833   -3.7464    0.0000 C   0  0  0  0  0  0  0  0  0  0  0  0
   -1.6158   -4.2313    0.0000 O   0  0  0  0  0  0  0  0  0  0  0  0
   -3.0369   -4.0820    0.0000 N   0  0  0  0  0  0  0  0  0  0  0  0
   -3.1232   -4.9025    0.0000 C   0  0  0  0  0  0  0  0  0  0  0  0
   -3.8768   -5.2380    0.0000 C   0  0  0  0  0  0  0  0  0  0  0  0
   -4.5443   -4.7531    0.0000 O   0  0  0  0  0  0  0  0  0  0  0  0
   -4.4580   -3.9326    0.0000 C   0  0  0  0  0  0  0  0  0  0  0  0
   -3.7044   -3.5970    0.0000 C   0  0  0  0  0  0  0  0  0  0  0  0
    2.0961   -1.6501    0.0000 S   0  0  0  0  0  0  0  0  0  0  0  0
    0.1318   -1.7277    0.0000 H   0  0  0  0  0  0  0  0  0  0  0  0
   -2.1360   -2.3452    0.0000 H   0  0  0  0  0  0  0  0  0  0  0  0
  1  2  1  0  0  0  0
  2  3  2  0  0  0  0
  2  8  1  0  0  0  0
  3  4  1  0  0  0  0
  4  5  2  0  0  0  0
  4 30  1  0  0  0  0
  5  6  1  0  0  0  0
  5  7  1  0  0  0  0
  6  9  2  0  0  0  0
  7  8  2  0  0  0  0
  9 10  1  0  0  0  0
  9 30  1  0  0  0  0
 10 11  2  0  0  0  0
 10 12  2  0  0  0  0
 10 13  1  0  0  0  0
 14 13  1  0  0  0  0
 14 15  1  0  0  0  0
 14 17  1  0  0  0  0
 14 31  1  6  0  0  0
 15 16  1  0  0  0  0
 16 19  1  0  0  0  0
 17 18  2  0  0  0  0
 17 19  1  0  0  0  0
 19 20  1  0  0  0  0
 20 21  1  0  0  0  0
 20 22  1  0  0  0  0
 20 32  1  1  0  0  0
 22 23  2  0  0  0  0
 22 24  1  0  0  0  0
 24 25  1  0  0  0  0
 24 29  1  0  0  0  0
 25 26  1  0  0  0  0
 26 27  1  0  0  0  0
 27 28  1  0  0  0  0
 28 29  1  0  0  0  0
M  END
>  <DATABASE_ID>
DB07844

>  <DATABASE_NAME>
drugbank

>  <SMILES>
[H][C@@](C)(N1CC[C@]([H])(NS(=O)(=O)C2=CC3=C(S2)C=C(Cl)C=C3)C1=O)C(=O)N1CCOCC1

>  <INCHI_IDENTIFIER>
InChI=1S/C19H22ClN3O5S2/c1-12(18(24)22-6-8-28-9-7-22)23-5-4-15(19(23)25)21-30(26,27)17-10-13-2-3-14(20)11-16(13)29-17/h2-3,10-12,15,21H,4-9H2,1H3/t12-,15-/m0/s1

>  <INCHI_KEY>
PHLKBODTBJLXRD-WFASDCNBSA-N

>  <FORMULA>
C19H22ClN3O5S2

>  <MOLECULAR_WEIGHT>
471.978

>  <EXACT_MASS>
471.068939916

>  <JCHEM_ACCEPTOR_COUNT>
5

>  <JCHEM_ATOM_COUNT>
52

>  <JCHEM_AVERAGE_NEUTRAL_MICROSPECIES_CHARGE>
-0.024109295159117285

>  <JCHEM_AVERAGE_POLARIZABILITY>
45.96786809151574

>  <JCHEM_BIOAVAILABILITY>
1

>  <JCHEM_DONOR_COUNT>
1

>  <JCHEM_FORMAL_CHARGE>
0

>  <JCHEM_GHOSE_FILTER>
1

>  <JCHEM_IUPAC>
6-chloro-N-[(3S)-1-[(2S)-1-(morpholin-4-yl)-1-oxopropan-2-yl]-2-oxopyrrolidin-3-yl]-1-benzothiophene-2-sulfonamide

>  <ALOGPS_LOGP>
1.03

>  <JCHEM_LOGP>
1.1364586216666674

>  <ALOGPS_LOGS>
-4.17

>  <JCHEM_MDDR_LIKE_RULE>
0

>  <JCHEM_NEUTRAL_CHARGE>
0

>  <JCHEM_NUMBER_OF_RINGS>
4

>  <JCHEM_PHYSIOLOGICAL_CHARGE>
0

>  <JCHEM_PKA>
15.951117756834934

>  <JCHEM_PKA_STRONGEST_ACIDIC>
8.607216685630412

>  <JCHEM_PKA_STRONGEST_BASIC>
-3.148451883380851

>  <JCHEM_POLAR_SURFACE_AREA>
96.02000000000001

>  <JCHEM_REFRACTIVITY>
112.02789999999996

>  <JCHEM_ROTATABLE_BOND_COUNT>
4

>  <JCHEM_RULE_OF_FIVE>
1

>  <ALOGPS_SOLUBILITY>
3.22e-02 g/l

>  <JCHEM_TRADITIONAL_IUPAC>
biotin

>  <JCHEM_VEBER_RULE>
0

>  <DRUGBANK_ID>
DB07844

>  <DRUG_GROUPS>
experimental

>  <GENERIC_NAME>
6-CHLORO-N-{(3S)-1-[(1S)-1-METHYL-2-MORPHOLIN-4-YL-2-OXOETHYL]-2-OXOPYRROLIDIN-3-YL}-1-BENZOTHIOPHENE-2-SULFONAMIDE

$$$$
GS5
 OpenBabel05042401512D

 32 35  0  0  1  0  0  0  0  0999 V2000
    5.1713   -2.8665    0.0000 Cl  0  0  0  0  0  0  0  0  0  0  0  0
    4.4568   -3.2790    0.0000 C   0  0  0  0  0  0  0  0  0  0  0  0
    4.4568   -4.1040    0.0000 C   0  0  0  0  0  0  0  0  0  0  0  0
    3.7423   -4.5165    0.0000 C   0  0  0  0  0  0  0  0  0  0  0  0
    3.0279   -4.1040    0.0000 C   0  0  0  0  0  0  0  0  0  0  0  0
    3.0279   -3.2790    0.0000 C   0  0  0  0  0  0  0  0  0  0  0  0
    3.7423   -2.8665    0.0000 C   0  0  0  0  0  0  0  0  0  0  0  0
    2.2432   -3.0240    0.0000 C   0  0  0  0  0  0  0  0  0  0  0  0
    1.7583   -3.6915    0.0000 C   0  0  0  0  0  0  0  0  0  0  0  0
    0.9333   -3.6915    0.0000 S   0  0  0  0  0  0  0  0  0  0  0  0
    0.9333   -2.8665    0.0000 O   0  0  0  0  0  0  0  0  0  0  0  0
    0.9333   -4.5165    0.0000 O   0  0  0  0  0  0  0  0  0  0  0  0
    0.1083   -3.6915    0.0000 N   0  0  0  0  0  0  0  0  0  0  0  0
   -0.3042   -2.9770    0.0000 C   0  0  2  0  0  0  0  0  0  0  0  0
   -1.1247   -2.8908    0.0000 C   0  0  0  0  0  0  0  0  0  0  0  0
   -1.6767   -3.5039    0.0000 O   0  0  0  0  0  0  0  0  0  0  0  0
    0.0314   -2.2233    0.0000 C   0  0  0  0  0  0  0  0  0  0  0  0
   -0.5817   -1.6713    0.0000 C   0  0  0  0  0  0  0  0  0  0  0  0
   -1.2962   -2.0838    0.0000 N   0  0  0  0  0  0  0  0  0  0  0  0
   -2.0499   -1.7482    0.0000 C   0  0  1  0  0  0  0  0  0  0  0  0
   -2.1361   -0.9278    0.0000 C   0  0  0  0  0  0  0  0  0  0  0  0
   -2.7173   -2.2332    0.0000 C   0  0  0  0  0  0  0  0  0  0  0  0
   -2.6311   -3.0536    0.0000 O   0  0  0  0  0  0  0  0  0  0  0  0
   -3.4710   -1.8976    0.0000 N   0  0  0  0  0  0  0  0  0  0  0  0
   -4.1384   -2.3825    0.0000 C   0  0  0  0  0  0  0  0  0  0  0  0
   -4.8921   -2.0470    0.0000 C   0  0  0  0  0  0  0  0  0  0  0  0
   -4.9783   -1.2265    0.0000 O   0  0  0  0  0  0  0  0  0  0  0  0
   -4.3109   -0.7416    0.0000 C   0  0  0  0  0  0  0  0  0  0  0  0
   -3.5572   -1.0771    0.0000 C   0  0  0  0  0  0  0  0  0  0  0  0
    2.2432   -4.3589    0.0000 S   0  0  0  0  0  0  0  0  0  0  0  0
   -0.6222   -3.4667    0.0000 H   0  0  0  0  0  0  0  0  0  0  0  0
   -1.5775   -1.4050    0.0000 H   0  0  0  0  0  0  0  0  0  0  0  0
  1  2  1  0  0  0  0
  2  3  1  0  0  0  0
  2  7  2  0  0  0  0
  3  4  2  0  0  0  0
  4  5  1  0  0  0  0
  5  6  2  0  0  0  0
  5 30  1  0  0  0  0
  6  7  1  0  0  0  0
  6  8  1  0  0  0  0
  8  9  2  0  0  0  0
  9 10  1  0  0  0  0
  9 30  1  0  0  0  0
 10 11  2  0  0  0  0
 10 12  2  0  0  0  0
 10 13  1  0  0  0  0
 14 13  1  0  0  0  0
 14 15  1  0  0  0  0
 14 17  1  0  0  0  0
 14 31  1  1  0  0  0
 15 16  2  0  0  0  0
 15 19  1  0  0  0  0
 17 18  1  0  0  0  0
 18 19  1  0  0  0  0
 19 20  1  0  0  0  0
 20 21  1  0  0  0  0
 20 22  1  0  0  0  0
 20 32  1  1  0  0  0
 22 23  2  0  0  0  0
 22 24  1  0  0  0  0
 24 25  1  0  0  0  0
 24 29  1  0  0  0  0
 25 26  1  0  0  0  0
 26 27  1  0  0  0  0
 27 28  1  0  0  0  0
 28 29  1  0  0  0  0
M  END
>  <DATABASE_ID>
DB07843

>  <DATABASE_NAME>
drugbank

>  <SMILES>
[H][C@@](C)(N1CC[C@]([H])(NS(=O)(=O)C2=CC3=C(S2)C=CC(Cl)=C3)C1=O)C(=O)N1CCOCC1

>  <INCHI_IDENTIFIER>
InChI=1S/C19H22ClN3O5S2/c1-12(18(24)22-6-8-28-9-7-22)23-5-4-15(19(23)25)21-30(26,27)17-11-13-10-14(20)2-3-16(13)29-17/h2-3,10-12,15,21H,4-9H2,1H3/t12-,15-/m0/s1

>  <INCHI_KEY>
LTJNKFUIOOJXNJ-WFASDCNBSA-N

>  <FORMULA>
C19H22ClN3O5S2

>  <MOLECULAR_WEIGHT>
471.978

>  <EXACT_MASS>
471.068939916

>  <JCHEM_ACCEPTOR_COUNT>
5

>  <JCHEM_ATOM_COUNT>
52

>  <JCHEM_AVERAGE_NEUTRAL_MICROSPECIES_CHARGE>
-0.02415970604233227

>  <JCHEM_AVERAGE_POLARIZABILITY>
46.101119789951454

>  <JCHEM_BIOAVAILABILITY>
1

>  <JCHEM_DONOR_COUNT>
1

>  <JCHEM_FORMAL_CHARGE>
0

>  <JCHEM_GHOSE_FILTER>
1

>  <JCHEM_IUPAC>
5-chloro-N-[(3S)-1-[(2S)-1-(morpholin-4-yl)-1-oxopropan-2-yl]-2-oxopyrrolidin-3-yl]-1-benzothiophene-2-sulfonamide

>  <ALOGPS_LOGP>
1.02

>  <JCHEM_LOGP>
1.1364586216666674

>  <ALOGPS_LOGS>
-4.14

>  <JCHEM_MDDR_LIKE_RULE>
0

>  <JCHEM_NEUTRAL_CHARGE>
0

>  <JCHEM_NUMBER_OF_RINGS>
4

>  <JCHEM_PHYSIOLOGICAL_CHARGE>
0

>  <JCHEM_PKA>
15.95111775683181

>  <JCHEM_PKA_STRONGEST_ACIDIC>
8.606287119036464

>  <JCHEM_PKA_STRONGEST_BASIC>
-3.1484518833808535

>  <JCHEM_POLAR_SURFACE_AREA>
96.02000000000001

>  <JCHEM_REFRACTIVITY>
112.02789999999999

>  <JCHEM_ROTATABLE_BOND_COUNT>
4

>  <JCHEM_RULE_OF_FIVE>
1

>  <ALOGPS_SOLUBILITY>
3.41e-02 g/l

>  <JCHEM_TRADITIONAL_IUPAC>
tetrahydrofolic acid

>  <JCHEM_VEBER_RULE>
0

>  <DRUGBANK_ID>
DB07843

>  <DRUG_GROUPS>
experimental

>  <GENERIC_NAME>
5-CHLORO-N-{(3S)-1-[(1S)-1-METHYL-2-MORPHOLIN-4-YL-2-OXOETHYL]-2-OXOPYRROLIDIN-3-YL}-1-BENZOTHIOPHENE-2-SULFONAMIDE

$$$$

 OpenBabel05042401512D

 34 36  0  0  1  0  0  0  0  0999 V2000
    1.2448   -8.4695    0.0000 C   0  0  0  0  0  0  0  0  0  0  0  0
    0.1842    1.8695    0.0000 C   0  0  0  0  0  0  0  0  0  0  0  0
    2.1434   -3.7125    0.0000 C   0  0  0  0  0  0  0  0  0  0  0  0
    0.7145   -3.7125    0.0000 C   0  0  0  0  0  0  0  0  0  0  0  0
    2.1434   -2.8875    0.0000 C   0  0  0  0  0  0  0  0  0  0  0  0
    0.7145   -2.8875    0.0000 C   0  0  0  0  0  0  0  0  0  0  0  0
    1.4289   -6.6000    0.0000 C   0  0  0  0  0  0  0  0  0  0  0  0
   -0.0000   -6.6000    0.0000 C   0  0  0  0  0  0  0  0  0  0  0  0
    0.0000    0.0000    0.0000 C   0  0  0  0  0  0  0  0  0  0  0  0
    1.4289    0.0000    0.0000 C   0  0  0  0  0  0  0  0  0  0  0  0
    0.7145   -6.1875    0.0000 C   0  0  1  0  0  0  0  0  0  0  0  0
    0.7145   -0.4125    0.0000 C   0  0  1  0  0  0  0  0  0  0  0  0
    0.1842   -8.4695    0.0000 C   0  0  0  0  0  0  0  0  0  0  0  0
    1.2448    1.8695    0.0000 C   0  0  0  0  0  0  0  0  0  0  0  0
    1.4289   -4.9500    0.0000 C   0  0  0  0  0  0  0  0  0  0  0  0
    1.4289   -1.6500    0.0000 C   0  0  0  0  0  0  0  0  0  0  0  0
    0.7145   -7.8375    0.0000 C   0  0  1  0  0  0  0  0  0  0  0  0
    0.7145    1.2375    0.0000 C   0  0  1  0  0  0  0  0  0  0  0  0
    1.4289   -4.1250    0.0000 N   0  0  0  0  0  0  0  0  0  0  0  0
    1.4289   -2.4750    0.0000 N   0  0  0  0  0  0  0  0  0  0  0  0
    0.4663   -9.2447    0.0000 O   0  0  0  0  0  0  0  0  0  0  0  0
   -0.6283   -8.3262    0.0000 O   0  0  0  0  0  0  0  0  0  0  0  0
    0.9626    2.6447    0.0000 O   0  0  0  0  0  0  0  0  0  0  0  0
    2.0572    1.7262    0.0000 O   0  0  0  0  0  0  0  0  0  0  0  0
    2.1434   -5.3625    0.0000 O   0  0  0  0  0  0  0  0  0  0  0  0
    2.1434   -1.2375    0.0000 O   0  0  0  0  0  0  0  0  0  0  0  0
    1.4289   -7.4250    0.0000 O   0  0  0  0  0  0  0  0  0  0  0  0
   -0.0000   -7.4250    0.0000 O   0  0  0  0  0  0  0  0  0  0  0  0
    0.0000    0.8250    0.0000 O   0  0  0  0  0  0  0  0  0  0  0  0
    1.4289    0.8250    0.0000 O   0  0  0  0  0  0  0  0  0  0  0  0
    0.7145   -5.3625    0.0000 O   0  0  0  0  0  0  0  0  0  0  0  0
    0.7145   -1.2375    0.0000 O   0  0  0  0  0  0  0  0  0  0  0  0
    1.4289   -5.7750    0.0000 H   0  0  0  0  0  0  0  0  0  0  0  0
    0.0000   -0.8250    0.0000 H   0  0  0  0  0  0  0  0  0  0  0  0
  5  3  1  0  0  0  0
  6  4  1  0  0  0  0
 11  7  1  0  0  0  0
 11  8  1  0  0  0  0
 11 31  1  0  0  0  0
 11 33  1  6  0  0  0
 12  9  1  0  0  0  0
 12 10  1  0  0  0  0
 12 32  1  0  0  0  0
 12 34  1  6  0  0  0
 17  1  1  6  0  0  0
 17 13  1  0  0  0  0
 18  2  1  6  0  0  0
 18 14  1  0  0  0  0
 19  3  1  0  0  0  0
 19  4  1  0  0  0  0
 19 15  1  0  0  0  0
 20  5  1  0  0  0  0
 20  6  1  0  0  0  0
 20 16  1  0  0  0  0
 21 13  2  0  0  0  0
 22 13  1  0  0  0  0
 23 14  2  0  0  0  0
 24 14  1  0  0  0  0
 25 15  2  0  0  0  0
 26 16  2  0  0  0  0
 27  7  1  0  0  0  0
 27 17  1  0  0  0  0
 28  8  1  0  0  0  0
 28 17  1  0  0  0  0
 29  9  1  0  0  0  0
 29 18  1  0  0  0  0
 30 10  1  0  0  0  0
 30 18  1  0  0  0  0
 31 15  1  0  0  0  0
 32 16  1  0  0  0  0
M  END
>  <DATABASE_ID>
DB07580

>  <DATABASE_NAME>
drugbank

>  <SMILES>
[H][C@@]1(CO[C@](C)(OC1)C(O)=O)OC(=O)N1CCN(CC1)C(=O)O[C@@]1([H])CO[C@](C)(OC1)C(O)=O

>  <INCHI_IDENTIFIER>
InChI=1S/C18H26N2O12/c1-17(13(21)22)27-7-11(8-28-17)31-15(25)19-3-5-20(6-4-19)16(26)32-12-9-29-18(2,14(23)24)30-10-12/h11-12H,3-10H2,1-2H3,(H,21,22)(H,23,24)/t11-,12-,17+,18+

>  <INCHI_KEY>
GNQQJZKGGHOMBD-RDAHUFKRSA-N

>  <FORMULA>
C18H26N2O12

>  <MOLECULAR_WEIGHT>
462.4052

>  <EXACT_MASS>
462.148574306

>  <JCHEM_ACCEPTOR_COUNT>
10

>  <JCHEM_ATOM_COUNT>
58

>  <JCHEM_AVERAGE_NEUTRAL_MICROSPECIES_CHARGE>
-1.9998745398102808

>  <JCHEM_AVERAGE_POLARIZABILITY>
43.80585171024271

>  <JCHEM_BIOAVAILABILITY>
1

>  <JCHEM_DONOR_COUNT>
2

>  <JCHEM_FORMAL_CHARGE>
0

>  <JCHEM_GHOSE_FILTER>
1

>  <JCHEM_IUPAC>
(2s,5s)-2-methyl-5-[4-({[(2s,5s)-2-carboxy-2-methyl-1,3-dioxan-5-yl]oxy}carbonyl)piperazine-1-carbonyloxy]-1,3-dioxane-2-carboxylic acid

>  <ALOGPS_LOGP>
-0.88

>  <JCHEM_LOGP>
0.03084729133333279

>  <ALOGPS_LOGS>
-1.40

>  <JCHEM_MDDR_LIKE_RULE>
1

>  <JCHEM_NEUTRAL_CHARGE>
-2

>  <JCHEM_NUMBER_OF_RINGS>
3

>  <JCHEM_PHYSIOLOGICAL_CHARGE>
-2

>  <JCHEM_PKA>
3.223475219985091

>  <JCHEM_PKA_STRONGEST_ACIDIC>
2.6214153097314994

>  <JCHEM_PKA_STRONGEST_BASIC>
-3.8064555331876497

>  <JCHEM_POLAR_SURFACE_AREA>
170.59999999999997

>  <JCHEM_REFRACTIVITY>
99.39260000000002

>  <JCHEM_ROTATABLE_BOND_COUNT>
6

>  <JCHEM_RULE_OF_FIVE>
1

>  <ALOGPS_SOLUBILITY>
1.83e+01 g/l

>  <JCHEM_TRADITIONAL_IUPAC>
tetrahydrofolic acid

>  <JCHEM_VEBER_RULE>
0

>  <DRUGBANK_ID>
DB07580

>  <DRUG_GROUPS>
experimental

>  <GENERIC_NAME>
BIS-1,2-{[(Z)-2CARBOXY-2-METHYL-1,3-DIOXANE]-5-YLOXYCARBONYL}-PIPERAZINE

$$$$
CBC
 OpenBabel05042401512D

 27 29  0  0  0  0  0  0  0  0999 V2000
   -2.7701    1.8460    0.0000 F   0  0  0  0  0  0  0  0  0  0  0  0
   -2.7701    1.0210    0.0000 C   0  0  0  0  0  0  0  0  0  0  0  0
   -1.9451    1.0210    0.0000 F   0  0  0  0  0  0  0  0  0  0  0  0
   -3.5951    1.0210    0.0000 F   0  0  0  0  0  0  0  0  0  0  0  0
   -2.7701    0.1960    0.0000 C   0  0  0  0  0  0  0  0  0  0  0  0
   -3.4845   -0.2165    0.0000 C   0  0  0  0  0  0  0  0  0  0  0  0
   -3.4845   -1.0415    0.0000 C   0  0  0  0  0  0  0  0  0  0  0  0
   -2.7701   -1.4540    0.0000 C   0  0  0  0  0  0  0  0  0  0  0  0
   -2.0556   -1.0415    0.0000 C   0  0  0  0  0  0  0  0  0  0  0  0
   -2.0556   -0.2165    0.0000 C   0  0  0  0  0  0  0  0  0  0  0  0
   -1.3411    0.1960    0.0000 S   0  0  0  0  0  0  0  0  0  0  0  0
   -0.9286   -0.5185    0.0000 O   0  0  0  0  0  0  0  0  0  0  0  0
   -1.5126    1.0030    0.0000 O   0  0  0  0  0  0  0  0  0  0  0  0
   -0.6267    0.6085    0.0000 N   0  0  0  0  0  0  0  0  0  0  0  0
    0.0878    0.1960    0.0000 N   0  0  0  0  0  0  0  0  0  0  0  0
    0.8023    0.6085    0.0000 C   0  0  0  0  0  0  0  0  0  0  0  0
    0.8023    1.4335    0.0000 O   0  0  0  0  0  0  0  0  0  0  0  0
    1.5168    0.1960    0.0000 C   0  0  0  0  0  0  0  0  0  0  0  0
    2.2704    0.5316    0.0000 C   0  0  0  0  0  0  0  0  0  0  0  0
    1.6030   -0.6245    0.0000 O   0  0  0  0  0  0  0  0  0  0  0  0
    2.4100   -0.7960    0.0000 C   0  0  0  0  0  0  0  0  0  0  0  0
    2.8225   -0.0815    0.0000 C   0  0  0  0  0  0  0  0  0  0  0  0
    3.6475   -0.0815    0.0000 C   0  0  0  0  0  0  0  0  0  0  0  0
    2.8225   -1.5105    0.0000 C   0  0  0  0  0  0  0  0  0  0  0  0
    3.6475   -1.5105    0.0000 C   0  0  0  0  0  0  0  0  0  0  0  0
    4.0600   -0.7960    0.0000 C   0  0  0  0  0  0  0  0  0  0  0  0
    4.8850   -0.7960    0.0000 Cl  0  0  0  0  0  0  0  0  0  0  0  0
  1  2  1  0  0  0  0
  2  3  1  0  0  0  0
  2  4  1  0  0  0  0
  2  5  1  0  0  0  0
  5  6  2  0  0  0  0
  5 10  1  0  0  0  0
  6  7  1  0  0  0  0
  7  8  2  0  0  0  0
  8  9  1  0  0  0  0
  9 10  2  0  0  0  0
 10 11  1  0  0  0  0
 11 12  2  0  0  0  0
 11 13  2  0  0  0  0
 11 14  1  0  0  0  0
 14 15  1  0  0  0  0
 15 16  1  0  0  0  0
 16 17  2  0  0  0  0
 16 18  1  0  0  0  0
 18 19  2  0  0  0  0
 18 20  1  0  0  0  0
 19 22  1  0  0  0  0
 20 21  1  0  0  0  0
 21 22  1  0  0  0  0
 21 24  2  0  0  0  0
 22 23  2  0  0  0  0
 23 26  1  0  0  0  0
 24 25  1  0  0  0  0
 25 26  2  0  0  0  0
 26 27  1  0  0  0  0
M  END
>  <DATABASE_ID>
DB07544

>  <DATABASE_NAME>
drugbank

>  <SMILES>
FC(F)(F)C1=CC=CC=C1S(=O)(=O)NNC(=O)C1=CC2=CC(Cl)=CC=C2O1

>  <INCHI_IDENTIFIER>
InChI=1S/C16H10ClF3N2O4S/c17-10-5-6-12-9(7-10)8-13(26-12)15(23)21-22-27(24,25)14-4-2-1-3-11(14)16(18,19)20/h1-8,22H,(H,21,23)

>  <INCHI_KEY>
ZLQBZYKAQQWOTK-UHFFFAOYSA-N

>  <FORMULA>
C16H10ClF3N2O4S

>  <MOLECULAR_WEIGHT>
418.775

>  <EXACT_MASS>
418.00018983

>  <JCHEM_ACCEPTOR_COUNT>
3

>  <JCHEM_ATOM_COUNT>
37

>  <JCHEM_AVERAGE_NEUTRAL_MICROSPECIES_CHARGE>
-1.5442621218812564

>  <JCHEM_AVERAGE_POLARIZABILITY>
35.715517714532155

>  <JCHEM_BIOAVAILABILITY>
1

>  <JCHEM_DONOR_COUNT>
2

>  <JCHEM_FORMAL_CHARGE>
0

>  <JCHEM_GHOSE_FILTER>
1

>  <JCHEM_IUPAC>
5-chloro-N'-[2-(trifluoromethyl)benzenesulfonyl]-1-benzofuran-2-carbohydrazide

>  <ALOGPS_LOGP>
3.70

>  <JCHEM_LOGP>
3.405019337666667

>  <ALOGPS_LOGS>
-4.44

>  <JCHEM_MDDR_LIKE_RULE>
0

>  <JCHEM_NEUTRAL_CHARGE>
-2

>  <JCHEM_NUMBER_OF_RINGS>
3

>  <JCHEM_PHYSIOLOGICAL_CHARGE>
-2

>  <JCHEM_PKA>
6.923283362064888

>  <JCHEM_PKA_STRONGEST_ACIDIC>
4.033032112263394

>  <JCHEM_PKA_STRONGEST_BASIC>
-3.0939597677132804

>  <JCHEM_POLAR_SURFACE_AREA>
88.41000000000001

>  <JCHEM_REFRACTIVITY>
91.2494

>  <JCHEM_ROTATABLE_BOND_COUNT>
4

>  <JCHEM_RULE_OF_FIVE>
1

>  <ALOGPS_SOLUBILITY>
1.52e-02 g/l

>  <JCHEM_TRADITIONAL_IUPAC>
tetrahydrofolic acid

>  <JCHEM_VEBER_RULE>
0

>  <DRUGBANK_ID>
DB07544

>  <DRUG_GROUPS>
experimental

>  <GENERIC_NAME>
N'-(5-CHLOROBENZOFURAN-2-CARBONYL)-2-(TRIFLUOROMETHYL)BENZENESULFONOHYDRAZIDE

$$$$
C17
 OpenBabel05042401512D

 22 24  0  0  0  0  0  0  0  0999 V2000
   -3.8929   -0.3588    0.0000 O   0  0  0  0  0  0  0  0  0  0  0  0
   -3.1784    0.0537    0.0000 C   0  0  0  0  0  0  0  0  0  0  0  0
   -2.4640   -0.3588    0.0000 O   0  0  0  0  0  0  0  0  0  0  0  0
   -1.7495    0.0537    0.0000 C   0  0  0  0  0  0  0  0  0  0  0  0
   -1.7495    0.8787    0.0000 C   0  0  0  0  0  0  0  0  0  0  0  0
   -2.4640    1.2912    0.0000 C   0  0  0  0  0  0  0  0  0  0  0  0
   -2.4640    2.1162    0.0000 C   0  0  0  0  0  0  0  0  0  0  0  0
   -3.1784    2.5287    0.0000 O   0  0  0  0  0  0  0  0  0  0  0  0
   -3.1784    0.8787    0.0000 C   0  0  0  0  0  0  0  0  0  0  0  0
   -1.0350   -0.3588    0.0000 C   0  0  0  0  0  0  0  0  0  0  0  0
   -0.3205    0.0537    0.0000 C   0  0  0  0  0  0  0  0  0  0  0  0
   -0.3205    0.8787    0.0000 C   0  0  0  0  0  0  0  0  0  0  0  0
   -1.0350    1.2912    0.0000 C   0  0  0  0  0  0  0  0  0  0  0  0
    0.3939   -0.3588    0.0000 O   0  0  0  0  0  0  0  0  0  0  0  0
    1.1084    0.0537    0.0000 C   0  0  0  0  0  0  0  0  0  0  0  0
    1.8229   -0.3588    0.0000 C   0  0  0  0  0  0  0  0  0  0  0  0
    2.5373    0.0537    0.0000 C   0  0  0  0  0  0  0  0  0  0  0  0
    3.2518   -0.3588    0.0000 C   0  0  0  0  0  0  0  0  0  0  0  0
    3.2518   -1.1838    0.0000 C   0  0  0  0  0  0  0  0  0  0  0  0
    2.5373   -1.5963    0.0000 C   0  0  0  0  0  0  0  0  0  0  0  0
    2.5373   -2.4213    0.0000 Cl  0  0  0  0  0  0  0  0  0  0  0  0
    1.8229   -1.1838    0.0000 C   0  0  0  0  0  0  0  0  0  0  0  0
  1  2  2  0  0  0  0
  2  3  1  0  0  0  0
  2  9  1  0  0  0  0
  3  4  1  0  0  0  0
  4  5  1  0  0  0  0
  4 10  2  0  0  0  0
  5  6  1  0  0  0  0
  5 13  2  0  0  0  0
  6  7  1  0  0  0  0
  6  9  2  0  0  0  0
  7  8  2  0  0  0  0
 10 11  1  0  0  0  0
 11 12  2  0  0  0  0
 11 14  1  0  0  0  0
 12 13  1  0  0  0  0
 14 15  1  0  0  0  0
 15 16  1  0  0  0  0
 16 17  1  0  0  0  0
 16 22  2  0  0  0  0
 17 18  2  0  0  0  0
 18 19  1  0  0  0  0
 19 20  2  0  0  0  0
 20 21  1  0  0  0  0
 20 22  1  0  0  0  0
M  END
>  <DATABASE_ID>
DB07512

>  <DATABASE_NAME>
drugbank

>  <SMILES>
ClC1=CC=CC(COC2=CC=C3C(OC(=O)C=C3C=O)=C2)=C1

>  <INCHI_IDENTIFIER>
InChI=1S/C17H11ClO4/c18-13-3-1-2-11(6-13)10-21-14-4-5-15-12(9-19)7-17(20)22-16(15)8-14/h1-9H,10H2

>  <INCHI_KEY>
ZOCADHRNWNJARU-UHFFFAOYSA-N

>  <FORMULA>
C17H11ClO4

>  <MOLECULAR_WEIGHT>
314.72

>  <EXACT_MASS>
314.034586547

>  <JCHEM_ACCEPTOR_COUNT>
3

>  <JCHEM_ATOM_COUNT>
33

>  <JCHEM_AVERAGE_NEUTRAL_MICROSPECIES_CHARGE>
1.3224473592927895e-12

>  <JCHEM_AVERAGE_POLARIZABILITY>
31.281552848317098

>  <JCHEM_BIOAVAILABILITY>
1

>  <JCHEM_DONOR_COUNT>
0

>  <JCHEM_FORMAL_CHARGE>
0

>  <JCHEM_GHOSE_FILTER>
1

>  <JCHEM_IUPAC>
7-[(3-chlorophenyl)methoxy]-2-oxo-2H-chromene-4-carbaldehyde

>  <ALOGPS_LOGP>
4.05

>  <JCHEM_LOGP>
3.286677094999999

>  <ALOGPS_LOGS>
-4.96

>  <JCHEM_MDDR_LIKE_RULE>
0

>  <JCHEM_NEUTRAL_CHARGE>
0

>  <JCHEM_NUMBER_OF_RINGS>
3

>  <JCHEM_PHYSIOLOGICAL_CHARGE>
0

>  <JCHEM_PKA_STRONGEST_BASIC>
-4.873391076699217

>  <JCHEM_POLAR_SURFACE_AREA>
52.60000000000001

>  <JCHEM_REFRACTIVITY>
82.50300000000001

>  <JCHEM_ROTATABLE_BOND_COUNT>
4

>  <JCHEM_RULE_OF_FIVE>
1

>  <ALOGPS_SOLUBILITY>
3.46e-03 g/l

>  <JCHEM_TRADITIONAL_IUPAC>
tetrahydrofolic acid

>  <JCHEM_VEBER_RULE>
0

>  <DRUGBANK_ID>
DB07512

>  <DRUG_GROUPS>
experimental

>  <GENERIC_NAME>
7-[(3-CHLOROBENZYL)OXY]-2-OXO-2H-CHROMENE-4-CARBALDEHYDE

$$$$
B97
 OpenBabel05042401512D

 28 32  0  0  1  0  0  0  0  0999 V2000
   -0.0959   -0.1125    0.0000 C   0  0  0  0  0  0  0  0  0  0  0  0
    2.1865    0.8448    0.0000 C   0  0  0  0  0  0  0  0  0  0  0  0
    0.3528   -2.2486    0.0000 C   0  0  0  0  0  0  0  0  0  0  0  0
   -0.4080   -2.5677    0.0000 C   0  0  0  0  0  0  0  0  0  0  0  0
    0.6649    0.2066    0.0000 C   0  0  0  0  0  0  0  0  0  0  0  0
    2.9473    1.1639    0.0000 C   0  0  0  0  0  0  0  0  0  0  0  0
    2.7392   -0.4729    0.0000 C   0  0  0  0  0  0  0  0  0  0  0  0
   -0.1999   -0.9309    0.0000 C   0  0  0  0  0  0  0  0  0  0  0  0
   -0.9607   -1.2500    0.0000 C   0  0  0  0  0  0  0  0  0  0  0  0
    2.0825    0.0264    0.0000 C   0  0  0  0  0  0  0  0  0  0  0  0
    0.4569   -1.4302    0.0000 C   0  0  0  0  0  0  0  0  0  0  0  0
   -1.7069   -0.8982    0.0000 C   0  0  0  0  0  0  0  0  0  0  0  0
   -1.0647   -2.0684    0.0000 C   0  0  0  0  0  0  0  0  0  0  0  0
    1.3217   -0.2927    0.0000 C   0  0  0  0  0  0  0  0  0  0  0  0
   -2.2721   -1.4991    0.0000 C   0  0  0  0  0  0  0  0  0  0  0  0
    3.6040    0.6646    0.0000 C   0  0  0  0  0  0  0  0  0  0  0  0
   -3.0944   -1.4319    0.0000 C   0  0  0  0  0  0  0  0  0  0  0  0
   -2.5360    0.3358    0.0000 C   0  0  0  0  0  0  0  0  0  0  0  0
   -3.3060    0.0396    0.0000 C   0  0  1  0  0  0  0  0  0  0  0  0
    4.3648    0.9837    0.0000 C   0  0  0  0  0  0  0  0  0  0  0  0
   -3.9069    0.6048    0.0000 C   0  0  0  0  0  0  0  0  0  0  0  0
    3.5000   -0.1538    0.0000 N   0  0  0  0  0  0  0  0  0  0  0  0
    1.2176   -1.1111    0.0000 N   0  0  0  0  0  0  0  0  0  0  0  0
   -1.8243   -0.0816    0.0000 N   0  0  0  0  0  0  0  0  0  0  0  0
   -3.5545   -0.7471    0.0000 N   0  0  0  0  0  0  0  0  0  0  0  0
   -3.5117   -2.1436    0.0000 O   0  0  0  0  0  0  0  0  0  0  0  0
   -1.8752   -2.2224    0.0000 S   0  0  0  0  0  0  0  0  0  0  0  0
   -3.1936    0.6126    0.0000 H   0  0  0  0  0  0  0  0  0  0  0  0
  1  5  2  0  0  0  0
  1  8  1  0  0  0  0
  2  6  2  0  0  0  0
  2 10  1  0  0  0  0
  3  4  2  0  0  0  0
  3 11  1  0  0  0  0
  4 13  1  0  0  0  0
  5 14  1  0  0  0  0
  6 16  1  0  0  0  0
  7 10  2  0  0  0  0
  7 22  1  0  0  0  0
  8  9  1  0  0  0  0
  8 11  2  0  0  0  0
  9 12  1  0  0  0  0
  9 13  2  0  0  0  0
 10 14  1  0  0  0  0
 11 23  1  0  0  0  0
 12 15  2  0  0  0  0
 12 24  1  0  0  0  0
 13 27  1  0  0  0  0
 14 23  2  0  0  0  0
 15 17  1  0  0  0  0
 15 27  1  0  0  0  0
 16 20  1  0  0  0  0
 16 22  2  0  0  0  0
 17 25  1  0  0  0  0
 17 26  2  0  0  0  0
 18 19  1  0  0  0  0
 18 24  1  0  0  0  0
 19 21  1  0  0  0  0
 19 25  1  0  0  0  0
 19 28  1  1  0  0  0
M  END
>  <DATABASE_ID>
DB07430

>  <DATABASE_NAME>
drugbank

>  <SMILES>
[H][C@@]1(C)CNC2=C(SC3=C2C2=C(C=C3)N=C(C=C2)C2=CN=C(C)C=C2)C(=O)N1

>  <INCHI_IDENTIFIER>
InChI=1S/C21H18N4OS/c1-11-3-4-13(10-22-11)15-6-5-14-16(25-15)7-8-17-18(14)19-20(27-17)21(26)24-12(2)9-23-19/h3-8,10,12,23H,9H2,1-2H3,(H,24,26)/t12-/m1/s1

>  <INCHI_KEY>
CMWRPDHVGMHLSZ-GFCCVEGCSA-N

>  <FORMULA>
C21H18N4OS

>  <MOLECULAR_WEIGHT>
374.459

>  <EXACT_MASS>
374.120131908

>  <JCHEM_ACCEPTOR_COUNT>
4

>  <JCHEM_ATOM_COUNT>
45

>  <JCHEM_AVERAGE_NEUTRAL_MICROSPECIES_CHARGE>
0.00972426463934817

>  <JCHEM_AVERAGE_POLARIZABILITY>
41.30033092756632

>  <JCHEM_BIOAVAILABILITY>
1

>  <JCHEM_DONOR_COUNT>
2

>  <JCHEM_FORMAL_CHARGE>
0

>  <JCHEM_GHOSE_FILTER>
1

>  <JCHEM_IUPAC>
(15R)-15-methyl-5-(6-methylpyridin-3-yl)-11-thia-6,14,17-triazatetracyclo[8.8.0.0^{2,7}.0^{12,18}]octadeca-1(10),2(7),3,5,8,12(18)-hexaen-13-one

>  <ALOGPS_LOGP>
3.86

>  <JCHEM_LOGP>
3.528282686

>  <ALOGPS_LOGS>
-5.39

>  <JCHEM_MDDR_LIKE_RULE>
0

>  <JCHEM_NEUTRAL_CHARGE>
0

>  <JCHEM_NUMBER_OF_RINGS>
5

>  <JCHEM_PHYSIOLOGICAL_CHARGE>
0

>  <JCHEM_PKA_STRONGEST_ACIDIC>
15.792717566115817

>  <JCHEM_PKA_STRONGEST_BASIC>
4.996303924393723

>  <JCHEM_POLAR_SURFACE_AREA>
66.91

>  <JCHEM_REFRACTIVITY>
106.92099999999998

>  <JCHEM_ROTATABLE_BOND_COUNT>
1

>  <JCHEM_RULE_OF_FIVE>
1

>  <ALOGPS_SOLUBILITY>
1.53e-03 g/l

>  <JCHEM_TRADITIONAL_IUPAC>
tetrahydrofolic acid

>  <JCHEM_VEBER_RULE>
0

>  <DRUGBANK_ID>
DB07430

>  <DRUG_GROUPS>
experimental

>  <GENERIC_NAME>
(10R)-10-methyl-3-(6-methylpyridin-3-yl)-9,10,11,12-tetrahydro-8H-[1,4]diazepino[5',6':4,5]thieno[3,2-f]quinolin-8-one

$$$$
A74
 OpenBabel05042401512D

 31 34  0  0  0  0  0  0  0  0999 V2000
   -4.2742    2.6363    0.0000 C   0  0  0  0  0  0  0  0  0  0  0  0
   -3.8617    3.3508    0.0000 C   0  0  0  0  0  0  0  0  0  0  0  0
   -3.0367    3.3508    0.0000 C   0  0  0  0  0  0  0  0  0  0  0  0
   -2.6242    2.6363    0.0000 C   0  0  0  0  0  0  0  0  0  0  0  0
   -3.0367    1.9219    0.0000 C   0  0  0  0  0  0  0  0  0  0  0  0
   -3.8617    1.9219    0.0000 C   0  0  0  0  0  0  0  0  0  0  0  0
   -2.6242    1.2074    0.0000 S   0  0  0  0  0  0  0  0  0  0  0  0
   -3.3387    0.7949    0.0000 O   0  0  0  0  0  0  0  0  0  0  0  0
   -1.9098    1.6199    0.0000 O   0  0  0  0  0  0  0  0  0  0  0  0
   -2.2117    0.4929    0.0000 N   0  0  0  0  0  0  0  0  0  0  0  0
   -1.3867    0.4929    0.0000 C   0  0  0  0  0  0  0  0  0  0  0  0
   -0.9018    1.1604    0.0000 N   0  0  0  0  0  0  0  0  0  0  0  0
   -0.1172    0.9054    0.0000 C   0  0  0  0  0  0  0  0  0  0  0  0
    0.5973    1.3179    0.0000 C   0  0  0  0  0  0  0  0  0  0  0  0
    1.3118    0.9054    0.0000 C   0  0  0  0  0  0  0  0  0  0  0  0
    1.3118    0.0804    0.0000 C   0  0  0  0  0  0  0  0  0  0  0  0
    0.5973   -0.3321    0.0000 C   0  0  0  0  0  0  0  0  0  0  0  0
   -0.1172    0.0804    0.0000 C   0  0  0  0  0  0  0  0  0  0  0  0
   -0.9018   -0.1745    0.0000 O   0  0  0  0  0  0  0  0  0  0  0  0
   -2.6242    4.0653    0.0000 Cl  0  0  0  0  0  0  0  0  0  0  0  0
   -4.2742    1.2074    0.0000 Cl  0  0  0  0  0  0  0  0  0  0  0  0
    2.0262    1.3179    0.0000 O   0  0  0  0  0  0  0  0  0  0  0  0
    2.7407    0.9054    0.0000 C   0  0  0  0  0  0  0  0  0  0  0  0
    1.3118   -2.3946    0.0000 C   0  0  0  0  0  0  0  0  0  0  0  0
    0.5973   -2.8071    0.0000 C   0  0  0  0  0  0  0  0  0  0  0  0
   -0.1172   -2.3946    0.0000 N   0  0  0  0  0  0  0  0  0  0  0  0
   -0.1172   -1.5696    0.0000 C   0  0  0  0  0  0  0  0  0  0  0  0
    0.5973   -1.1571    0.0000 C   0  0  0  0  0  0  0  0  0  0  0  0
    1.3118   -1.5696    0.0000 C   0  0  0  0  0  0  0  0  0  0  0  0
    0.5973   -3.6321    0.0000 O   0  0  0  0  0  0  0  0  0  0  0  0
    1.3118   -4.0446    0.0000 C   0  0  0  0  0  0  0  0  0  0  0  0
  1  2  1  0  0  0  0
  1  6  2  0  0  0  0
  2  3  2  0  0  0  0
  3  4  1  0  0  0  0
  3 20  1  0  0  0  0
  4  5  2  0  0  0  0
  5  6  1  0  0  0  0
  5  7  1  0  0  0  0
  6 21  1  0  0  0  0
  7  8  2  0  0  0  0
  7  9  2  0  0  0  0
  7 10  1  0  0  0  0
 10 11  1  0  0  0  0
 11 12  2  0  0  0  0
 11 19  1  0  0  0  0
 12 13  1  0  0  0  0
 13 14  1  0  0  0  0
 13 18  2  0  0  0  0
 14 15  2  0  0  0  0
 15 16  1  0  0  0  0
 15 22  1  0  0  0  0
 16 17  2  0  0  0  0
 17 18  1  0  0  0  0
 17 28  1  0  0  0  0
 18 19  1  0  0  0  0
 22 23  1  0  0  0  0
 24 25  1  0  0  0  0
 24 29  2  0  0  0  0
 25 26  2  0  0  0  0
 25 30  1  0  0  0  0
 26 27  1  0  0  0  0
 27 28  2  0  0  0  0
 28 29  1  0  0  0  0
 30 31  1  0  0  0  0
M  END
>  <DATABASE_ID>
DB07321

>  <DATABASE_NAME>
drugbank

>  <SMILES>
COC1=CC2=C(OC(NS(=O)(=O)C3=CC(Cl)=CC=C3Cl)=N2)C(=C1)C1=CN=C(OC)C=C1

>  <INCHI_IDENTIFIER>
InChI=1S/C20H15Cl2N3O5S/c1-28-13-8-14(11-3-6-18(29-2)23-10-11)19-16(9-13)24-20(30-19)25-31(26,27)17-7-12(21)4-5-15(17)22/h3-10H,1-2H3,(H,24,25)

>  <INCHI_KEY>
KOKQLKWXOFRTHE-UHFFFAOYSA-N

>  <FORMULA>
C20H15Cl2N3O5S

>  <MOLECULAR_WEIGHT>
480.321

>  <EXACT_MASS>
479.010946709

>  <JCHEM_ACCEPTOR_COUNT>
6

>  <JCHEM_ATOM_COUNT>
46

>  <JCHEM_AVERAGE_NEUTRAL_MICROSPECIES_CHARGE>
-0.7259870941855091

>  <JCHEM_AVERAGE_POLARIZABILITY>
44.89106114565497

>  <JCHEM_BIOAVAILABILITY>
1

>  <JCHEM_DONOR_COUNT>
1

>  <JCHEM_FORMAL_CHARGE>
0

>  <JCHEM_GHOSE_FILTER>
0

>  <JCHEM_IUPAC>
2,5-dichloro-N-[5-methoxy-7-(6-methoxypyridin-3-yl)-1,3-benzoxazol-2-yl]benzene-1-sulfonamide

>  <ALOGPS_LOGP>
4.46

>  <JCHEM_LOGP>
4.408537982

>  <ALOGPS_LOGS>
-4.31

>  <JCHEM_MDDR_LIKE_RULE>
0

>  <JCHEM_NEUTRAL_CHARGE>
-1

>  <JCHEM_NUMBER_OF_RINGS>
4

>  <JCHEM_PHYSIOLOGICAL_CHARGE>
-1

>  <JCHEM_PKA_STRONGEST_ACIDIC>
6.576822075216806

>  <JCHEM_PKA_STRONGEST_BASIC>
2.2881881449094936

>  <JCHEM_POLAR_SURFACE_AREA>
103.55000000000001

>  <JCHEM_REFRACTIVITY>
114.85739999999998

>  <JCHEM_ROTATABLE_BOND_COUNT>
5

>  <JCHEM_RULE_OF_FIVE>
1

>  <ALOGPS_SOLUBILITY>
2.37e-02 g/l

>  <JCHEM_TRADITIONAL_IUPAC>
tetrahydrofolic acid

>  <JCHEM_VEBER_RULE>
0

>  <DRUGBANK_ID>
DB07321

>  <DRUG_GROUPS>
experimental

>  <GENERIC_NAME>
2,5-DICHLORO-N-[5-METHOXY-7-(6-METHOXYPYRIDIN-3-YL)-1,3-BENZOXAZOL-2-YL]BENZENESULFONAMIDE

$$$$
A37
 OpenBabel05042401512D

 22 24  0  0  0  0  0  0  0  0999 V2000
   -1.5738   -1.8866    0.0000 C   0  0  0  0  0  0  0  0  0  0  0  0
   -2.3988   -1.8866    0.0000 C   0  0  0  0  0  0  0  0  0  0  0  0
   -2.8113   -1.1722    0.0000 C   0  0  0  0  0  0  0  0  0  0  0  0
   -2.3988   -0.4577    0.0000 C   0  0  0  0  0  0  0  0  0  0  0  0
   -1.5738   -0.4577    0.0000 C   0  0  0  0  0  0  0  0  0  0  0  0
   -1.1613   -1.1722    0.0000 C   0  0  0  0  0  0  0  0  0  0  0  0
   -1.1613    0.2568    0.0000 S   0  0  0  0  0  0  0  0  0  0  0  0
   -0.4468   -0.1557    0.0000 O   0  0  0  0  0  0  0  0  0  0  0  0
   -1.8758    0.6693    0.0000 O   0  0  0  0  0  0  0  0  0  0  0  0
   -0.7488    0.9713    0.0000 N   0  0  0  0  0  0  0  0  0  0  0  0
    0.0762    0.9713    0.0000 C   0  0  0  0  0  0  0  0  0  0  0  0
    0.5611    1.6387    0.0000 N   0  0  0  0  0  0  0  0  0  0  0  0
    1.3458    1.3838    0.0000 C   0  0  0  0  0  0  0  0  0  0  0  0
    2.0602    1.7963    0.0000 C   0  0  0  0  0  0  0  0  0  0  0  0
    2.7747    1.3838    0.0000 C   0  0  0  0  0  0  0  0  0  0  0  0
    3.4892    1.7963    0.0000 Cl  0  0  0  0  0  0  0  0  0  0  0  0
    2.7747    0.5588    0.0000 C   0  0  0  0  0  0  0  0  0  0  0  0
    2.0602    0.1463    0.0000 C   0  0  0  0  0  0  0  0  0  0  0  0
    1.3458    0.5588    0.0000 C   0  0  0  0  0  0  0  0  0  0  0  0
    0.5611    0.3038    0.0000 O   0  0  0  0  0  0  0  0  0  0  0  0
   -3.6363   -1.1722    0.0000 Cl  0  0  0  0  0  0  0  0  0  0  0  0
   -0.3363   -1.1722    0.0000 Cl  0  0  0  0  0  0  0  0  0  0  0  0
  1  2  1  0  0  0  0
  1  6  2  0  0  0  0
  2  3  2  0  0  0  0
  3  4  1  0  0  0  0
  3 21  1  0  0  0  0
  4  5  2  0  0  0  0
  5  6  1  0  0  0  0
  5  7  1  0  0  0  0
  6 22  1  0  0  0  0
  7  8  2  0  0  0  0
  7  9  2  0  0  0  0
  7 10  1  0  0  0  0
 10 11  1  0  0  0  0
 11 12  2  0  0  0  0
 11 20  1  0  0  0  0
 12 13  1  0  0  0  0
 13 14  2  0  0  0  0
 13 19  1  0  0  0  0
 14 15  1  0  0  0  0
 15 16  1  0  0  0  0
 15 17  2  0  0  0  0
 17 18  1  0  0  0  0
 18 19  2  0  0  0  0
 19 20  1  0  0  0  0
M  END
>  <DATABASE_ID>
DB07312

>  <DATABASE_NAME>
drugbank

>  <SMILES>
ClC1=CC=C2OC(NS(=O)(=O)C3=CC(Cl)=CC=C3Cl)=NC2=C1

>  <INCHI_IDENTIFIER>
InChI=1S/C13H7Cl3N2O3S/c14-7-2-4-11-10(5-7)17-13(21-11)18-22(19,20)12-6-8(15)1-3-9(12)16/h1-6H,(H,17,18)

>  <INCHI_KEY>
JCXZHFCBNFFHRC-UHFFFAOYSA-N

>  <FORMULA>
C13H7Cl3N2O3S

>  <MOLECULAR_WEIGHT>
377.63

>  <EXACT_MASS>
375.924295911

>  <JCHEM_ACCEPTOR_COUNT>
3

>  <JCHEM_ATOM_COUNT>
29

>  <JCHEM_AVERAGE_NEUTRAL_MICROSPECIES_CHARGE>
-0.7262621586207851

>  <JCHEM_AVERAGE_POLARIZABILITY>
33.151164663761996

>  <JCHEM_BIOAVAILABILITY>
1

>  <JCHEM_DONOR_COUNT>
1

>  <JCHEM_FORMAL_CHARGE>
0

>  <JCHEM_GHOSE_FILTER>
1

>  <JCHEM_IUPAC>
2,5-dichloro-N-(5-chloro-1,3-benzoxazol-2-yl)benzene-1-sulfonamide

>  <ALOGPS_LOGP>
4.18

>  <JCHEM_LOGP>
4.303914724666666

>  <ALOGPS_LOGS>
-4.30

>  <JCHEM_MDDR_LIKE_RULE>
0

>  <JCHEM_NEUTRAL_CHARGE>
-1

>  <JCHEM_NUMBER_OF_RINGS>
3

>  <JCHEM_PHYSIOLOGICAL_CHARGE>
-1

>  <JCHEM_PKA_STRONGEST_ACIDIC>
6.576241422320491

>  <JCHEM_PKA_STRONGEST_BASIC>
-2.31351658739294

>  <JCHEM_POLAR_SURFACE_AREA>
72.2

>  <JCHEM_REFRACTIVITY>
83.443

>  <JCHEM_ROTATABLE_BOND_COUNT>
2

>  <JCHEM_RULE_OF_FIVE>
1

>  <ALOGPS_SOLUBILITY>
1.88e-02 g/l

>  <JCHEM_TRADITIONAL_IUPAC>
tetrahydrofolic acid

>  <JCHEM_VEBER_RULE>
0

>  <DRUGBANK_ID>
DB07312

>  <DRUG_GROUPS>
experimental

>  <GENERIC_NAME>
2,5-DICHLORO-N-(5-CHLORO-1,3-BENZOXAZOL-2-YL)BENZENESULFONAMIDE

$$$$

 OpenBabel05042401512D

 28 30  0  0  1  0  0  0  0  0999 V2000
   -3.4729    0.4838    0.0000 C   0  0  0  0  0  0  0  0  0  0  0  0
   -4.2827    0.6559    0.0000 C   0  0  0  0  0  0  0  0  0  0  0  0
   -4.8342    0.0421    0.0000 O   0  0  0  0  0  0  0  0  0  0  0  0
   -4.5801   -0.7430    0.0000 C   0  0  0  0  0  0  0  0  0  0  0  0
   -3.7703   -0.9151    0.0000 C   0  0  0  0  0  0  0  0  0  0  0  0
   -3.2188   -0.3012    0.0000 N   0  0  0  0  0  0  0  0  0  0  0  0
   -2.4123   -0.4689    0.0000 C   0  0  0  0  0  0  0  0  0  0  0  0
   -2.1573   -1.2504    0.0000 O   0  0  0  0  0  0  0  0  0  0  0  0
   -1.8606    0.1454    0.0000 C   0  0  1  0  0  0  0  0  0  0  0  0
   -1.0508   -0.0266    0.0000 N   0  0  0  0  0  0  0  0  0  0  0  0
   -0.7970   -0.8121    0.0000 C   0  0  0  0  0  0  0  0  0  0  0  0
    0.0262   -0.8066    0.0000 C   0  0  2  0  0  0  0  0  0  0  0  0
    0.2755   -0.0231    0.0000 C   0  0  0  0  0  0  0  0  0  0  0  0
   -0.3819    0.4586    0.0000 C   0  0  0  0  0  0  0  0  0  0  0  0
   -1.2827   -1.4902    0.0000 O   0  0  0  0  0  0  0  0  0  0  0  0
   -2.1155    0.9268    0.0000 C   0  0  0  0  0  0  0  0  0  0  0  0
    0.5156   -1.4702    0.0000 N   0  0  0  0  0  0  0  0  0  0  0  0
    1.3358   -1.3812    0.0000 S   0  0  0  0  0  0  0  0  0  0  0  0
    1.2470   -0.5604    0.0000 O   0  0  0  0  0  0  0  0  0  0  0  0
    1.4236   -2.2061    0.0000 O   0  0  0  0  0  0  0  0  0  0  0  0
    2.1566   -1.2926    0.0000 C   0  0  0  0  0  0  0  0  0  0  0  0
    2.4908   -0.5403    0.0000 C   0  0  0  0  0  0  0  0  0  0  0  0
    3.3110   -0.4514    0.0000 C   0  0  0  0  0  0  0  0  0  0  0  0
    3.9268   -0.9951    0.0000 C   0  0  0  0  0  0  0  0  0  0  0  0
    4.6376   -0.5701    0.0000 C   0  0  0  0  0  0  0  0  0  0  0  0
    4.4614    0.2182    0.0000 C   0  0  0  0  0  0  0  0  0  0  0  0
    3.6434    0.3061    0.0000 S   0  0  0  0  0  0  0  0  0  0  0  0
    5.0209    0.8363    0.0000 Cl  0  0  0  0  0  0  0  0  0  0  0  0
  1  2  1  0  0  0  0
  1  6  1  0  0  0  0
  2  3  1  0  0  0  0
  3  4  1  0  0  0  0
  4  5  1  0  0  0  0
  5  6  1  0  0  0  0
  6  7  1  0  0  0  0
  7  8  2  0  0  0  0
  7  9  1  0  0  0  0
  9 16  1  6  0  0  0
  9 10  1  0  0  0  0
 10 11  1  0  0  0  0
 11 12  1  0  0  0  0
 11 15  2  0  0  0  0
 12 17  1  6  0  0  0
 12 13  1  0  0  0  0
 13 14  1  0  0  0  0
 14 10  1  0  0  0  0
 17 18  1  0  0  0  0
 18 19  2  0  0  0  0
 18 20  2  0  0  0  0
 18 21  1  0  0  0  0
 21 22  2  0  0  0  0
 22 23  1  0  0  0  0
 23 24  2  0  0  0  0
 24 25  1  0  0  0  0
 25 26  2  0  0  0  0
 26 27  1  0  0  0  0
 26 28  1  0  0  0  0
 27 23  1  0  0  0  0
M  END
>  <DATABASE_ID>
DB07278

>  <DATABASE_NAME>
drugbank

>  <SMILES>
C[C@H](N1CC[C@H](NS(=O)(=O)\C=C\C2=CC=C(Cl)S2)C1=O)C(=O)N1CCOCC1

>  <INCHI_IDENTIFIER>
InChI=1S/C17H22ClN3O5S2/c1-12(16(22)20-7-9-26-10-8-20)21-6-4-14(17(21)23)19-28(24,25)11-5-13-2-3-15(18)27-13/h2-3,5,11-12,14,19H,4,6-10H2,1H3/b11-5+/t12-,14-/m0/s1

>  <INCHI_KEY>
ACEFOQMQINFMRW-DYCFVMESSA-N

>  <FORMULA>
C17H22ClN3O5S2

>  <MOLECULAR_WEIGHT>
447.957

>  <EXACT_MASS>
447.068939916

>  <JCHEM_ACCEPTOR_COUNT>
5

>  <JCHEM_ATOM_COUNT>
50

>  <JCHEM_AVERAGE_NEUTRAL_MICROSPECIES_CHARGE>
-0.0065210702409672335

>  <JCHEM_AVERAGE_POLARIZABILITY>
44.428681012601885

>  <JCHEM_BIOAVAILABILITY>
1

>  <JCHEM_DONOR_COUNT>
1

>  <JCHEM_FORMAL_CHARGE>
0

>  <JCHEM_GHOSE_FILTER>
1

>  <JCHEM_IUPAC>
(1E)-2-(5-chlorothiophen-2-yl)-N-[(3S)-1-[(2S)-1-(morpholin-4-yl)-1-oxopropan-2-yl]-2-oxopyrrolidin-3-yl]ethene-1-sulfonamide

>  <ALOGPS_LOGP>
0.70

>  <JCHEM_LOGP>
0.3942759363333336

>  <ALOGPS_LOGS>
-3.56

>  <JCHEM_MDDR_LIKE_RULE>
0

>  <JCHEM_NEUTRAL_CHARGE>
0

>  <JCHEM_NUMBER_OF_RINGS>
3

>  <JCHEM_PHYSIOLOGICAL_CHARGE>
0

>  <JCHEM_PKA>
15.875898411126368

>  <JCHEM_PKA_STRONGEST_ACIDIC>
9.182839862105272

>  <JCHEM_PKA_STRONGEST_BASIC>
-3.144792772562587

>  <JCHEM_POLAR_SURFACE_AREA>
96.02000000000001

>  <JCHEM_REFRACTIVITY>
105.35419999999998

>  <JCHEM_ROTATABLE_BOND_COUNT>
5

>  <JCHEM_RULE_OF_FIVE>
1

>  <ALOGPS_SOLUBILITY>
1.22e-01 g/l

>  <JCHEM_TRADITIONAL_IUPAC>
11-[(1S,3aS,3bR,4R,9bS,11aS)-1,7-dihydroxy-11a-methyl-1H,2H,3H,3aH,3bH,4H,5H,9bH,10H,11H-cyclopenta[a]phenanthren-4-yl]-N-butyl-N-methylundecanamide

>  <JCHEM_VEBER_RULE>
0

>  <DRUGBANK_ID>
DB07278

>  <DRUG_GROUPS>
experimental

>  <GENERIC_NAME>
GW-813893

$$$$
870
 OpenBabel05042401512D

 30 33  0  0  0  0  0  0  0  0999 V2000
   -4.1495    2.4319    0.0000 C   0  0  0  0  0  0  0  0  0  0  0  0
   -3.7370    3.1464    0.0000 C   0  0  0  0  0  0  0  0  0  0  0  0
   -2.9120    3.1464    0.0000 C   0  0  0  0  0  0  0  0  0  0  0  0
   -2.4995    2.4319    0.0000 C   0  0  0  0  0  0  0  0  0  0  0  0
   -2.9120    1.7174    0.0000 C   0  0  0  0  0  0  0  0  0  0  0  0
   -3.7370    1.7174    0.0000 C   0  0  0  0  0  0  0  0  0  0  0  0
   -2.4995    1.0030    0.0000 S   0  0  0  0  0  0  0  0  0  0  0  0
   -3.2140    0.5905    0.0000 O   0  0  0  0  0  0  0  0  0  0  0  0
   -1.7850    1.4155    0.0000 O   0  0  0  0  0  0  0  0  0  0  0  0
   -2.0870    0.2885    0.0000 N   0  0  0  0  0  0  0  0  0  0  0  0
   -1.2620    0.2885    0.0000 C   0  0  0  0  0  0  0  0  0  0  0  0
   -0.7771    0.9559    0.0000 N   0  0  0  0  0  0  0  0  0  0  0  0
    0.0075    0.7010    0.0000 C   0  0  0  0  0  0  0  0  0  0  0  0
    0.7220    1.1135    0.0000 C   0  0  0  0  0  0  0  0  0  0  0  0
    1.4365    0.7010    0.0000 C   0  0  0  0  0  0  0  0  0  0  0  0
    1.4365   -0.1240    0.0000 C   0  0  0  0  0  0  0  0  0  0  0  0
    0.7220   -0.5365    0.0000 C   0  0  0  0  0  0  0  0  0  0  0  0
    0.0075   -0.1240    0.0000 C   0  0  0  0  0  0  0  0  0  0  0  0
   -0.7771   -0.3789    0.0000 O   0  0  0  0  0  0  0  0  0  0  0  0
   -2.4995    3.8608    0.0000 Cl  0  0  0  0  0  0  0  0  0  0  0  0
   -4.1495    1.0030    0.0000 Cl  0  0  0  0  0  0  0  0  0  0  0  0
    2.1510    1.1135    0.0000 O   0  0  0  0  0  0  0  0  0  0  0  0
    2.8654    0.7010    0.0000 C   0  0  0  0  0  0  0  0  0  0  0  0
    1.4365   -2.5990    0.0000 C   0  0  0  0  0  0  0  0  0  0  0  0
    0.7220   -3.0115    0.0000 C   0  0  0  0  0  0  0  0  0  0  0  0
    0.0075   -2.5990    0.0000 C   0  0  0  0  0  0  0  0  0  0  0  0
    0.0075   -1.7740    0.0000 C   0  0  0  0  0  0  0  0  0  0  0  0
    0.7220   -1.3615    0.0000 C   0  0  0  0  0  0  0  0  0  0  0  0
    1.4365   -1.7740    0.0000 C   0  0  0  0  0  0  0  0  0  0  0  0
   -0.7069   -3.0115    0.0000 N   0  0  0  0  0  0  0  0  0  0  0  0
  1  2  1  0  0  0  0
  1  6  2  0  0  0  0
  2  3  2  0  0  0  0
  3  4  1  0  0  0  0
  3 20  1  0  0  0  0
  4  5  2  0  0  0  0
  5  6  1  0  0  0  0
  5  7  1  0  0  0  0
  6 21  1  0  0  0  0
  7  8  2  0  0  0  0
  7  9  2  0  0  0  0
  7 10  1  0  0  0  0
 10 11  1  0  0  0  0
 11 12  2  0  0  0  0
 11 19  1  0  0  0  0
 12 13  1  0  0  0  0
 13 14  1  0  0  0  0
 13 18  2  0  0  0  0
 14 15  2  0  0  0  0
 15 16  1  0  0  0  0
 15 22  1  0  0  0  0
 16 17  2  0  0  0  0
 17 18  1  0  0  0  0
 17 28  1  0  0  0  0
 18 19  1  0  0  0  0
 22 23  1  0  0  0  0
 24 25  1  0  0  0  0
 24 29  2  0  0  0  0
 25 26  2  0  0  0  0
 26 27  1  0  0  0  0
 26 30  1  0  0  0  0
 27 28  2  0  0  0  0
 28 29  1  0  0  0  0
M  END
>  <DATABASE_ID>
DB07270

>  <DATABASE_NAME>
drugbank

>  <SMILES>
COC1=CC2=C(OC(NS(=O)(=O)C3=CC(Cl)=CC=C3Cl)=N2)C(=C1)C1=CC(N)=CC=C1

>  <INCHI_IDENTIFIER>
InChI=1S/C20H15Cl2N3O4S/c1-28-14-9-15(11-3-2-4-13(23)7-11)19-17(10-14)24-20(29-19)25-30(26,27)18-8-12(21)5-6-16(18)22/h2-10H,23H2,1H3,(H,24,25)

>  <INCHI_KEY>
GAYYMURZGLJDCT-UHFFFAOYSA-N

>  <FORMULA>
C20H15Cl2N3O4S

>  <MOLECULAR_WEIGHT>
464.322

>  <EXACT_MASS>
463.016032087

>  <JCHEM_ACCEPTOR_COUNT>
5

>  <JCHEM_ATOM_COUNT>
45

>  <JCHEM_AVERAGE_NEUTRAL_MICROSPECIES_CHARGE>
-0.7255623054021864

>  <JCHEM_AVERAGE_POLARIZABILITY>
43.650071092466995

>  <JCHEM_BIOAVAILABILITY>
1

>  <JCHEM_DONOR_COUNT>
2

>  <JCHEM_FORMAL_CHARGE>
0

>  <JCHEM_GHOSE_FILTER>
1

>  <JCHEM_IUPAC>
N-[7-(3-aminophenyl)-5-methoxy-1,3-benzoxazol-2-yl]-2,5-dichlorobenzene-1-sulfonamide

>  <ALOGPS_LOGP>
4.66

>  <JCHEM_LOGP>
4.360498190666667

>  <ALOGPS_LOGS>
-4.57

>  <JCHEM_MDDR_LIKE_RULE>
0

>  <JCHEM_NEUTRAL_CHARGE>
-1

>  <JCHEM_NUMBER_OF_RINGS>
4

>  <JCHEM_PHYSIOLOGICAL_CHARGE>
-1

>  <JCHEM_PKA_STRONGEST_ACIDIC>
6.577315868537151

>  <JCHEM_PKA_STRONGEST_BASIC>
3.6435354111959093

>  <JCHEM_POLAR_SURFACE_AREA>
107.45

>  <JCHEM_REFRACTIVITY>
114.93799999999997

>  <JCHEM_ROTATABLE_BOND_COUNT>
4

>  <JCHEM_RULE_OF_FIVE>
1

>  <ALOGPS_SOLUBILITY>
1.24e-02 g/l

>  <JCHEM_TRADITIONAL_IUPAC>
tetrahydrofolic acid

>  <JCHEM_VEBER_RULE>
0

>  <DRUGBANK_ID>
DB07270

>  <DRUG_GROUPS>
experimental

>  <GENERIC_NAME>
N-[7-(3-AMINOPHENYL)-5-METHOXY-1,3-BENZOXAZOL-2-YL]-2,5-DICHLOROBENZENESULFONAMIDE

$$$$
5CN
 OpenBabel05042401512D

 25 27  0  0  1  0  0  0  0  0999 V2000
   -1.3570    2.7646    0.0000 C   0  0  0  0  0  0  0  0  0  0  0  0
   -1.3570    3.5896    0.0000 C   0  0  0  0  0  0  0  0  0  0  0  0
   -0.6426    4.0021    0.0000 C   0  0  0  0  0  0  0  0  0  0  0  0
   -2.7860    1.1146    0.0000 C   0  0  0  0  0  0  0  0  0  0  0  0
   -2.0715    1.5271    0.0000 C   0  0  0  0  0  0  0  0  0  0  0  0
   -2.7860    2.7646    0.0000 C   0  0  0  0  0  0  0  0  0  0  0  0
   -3.5005    2.3521    0.0000 C   0  0  0  0  0  0  0  0  0  0  0  0
   -3.5005    1.5271    0.0000 C   0  0  3  0  0  0  0  0  0  0  0  0
   -4.2149    1.1146    0.0000 C   0  0  0  0  0  0  0  0  0  0  0  0
    0.7864    4.0021    0.0000 C   0  0  0  0  0  0  0  0  0  0  0  0
    0.0719    1.1146    0.0000 C   0  0  0  0  0  0  0  0  0  0  0  0
    0.0719    0.2896    0.0000 C   0  0  0  0  0  0  0  0  0  0  0  0
   -0.5955   -0.1954    0.0000 C   0  0  0  0  0  0  0  0  0  0  0  0
    0.9693   -1.6474    0.0000 C   0  0  0  0  0  0  0  0  0  0  0  0
    0.0719    3.5896    0.0000 C   0  0  0  0  0  0  0  0  0  0  0  0
    0.0719    2.7646    0.0000 C   0  0  0  0  0  0  0  0  0  0  0  0
   -0.6426    2.3521    0.0000 C   0  0  0  0  0  0  0  0  0  0  0  0
   -2.0715    2.3521    0.0000 N   0  0  0  0  0  0  0  0  0  0  0  0
    1.5008    3.5896    0.0000 O   0  0  0  0  0  0  0  0  0  0  0  0
   -0.6426    1.5271    0.0000 N   0  0  0  0  0  0  0  0  0  0  0  0
    0.7864    1.5271    0.0000 O   0  0  0  0  0  0  0  0  0  0  0  0
   -0.3406   -0.9800    0.0000 C   0  0  0  0  0  0  0  0  0  0  0  0
    0.4844   -0.9800    0.0000 C   0  0  0  0  0  0  0  0  0  0  0  0
    0.7393   -0.1954    0.0000 O   0  0  0  0  0  0  0  0  0  0  0  0
    1.4542   -2.3149    0.0000 N   0  0  0  0  0  0  0  0  0  0  0  0
  1 18  1  0  0  0  0
  1  2  2  0  0  0  0
  1 17  1  0  0  0  0
  2  3  1  0  0  0  0
  3 15  2  0  0  0  0
  4  8  1  0  0  0  0
  4  5  1  0  0  0  0
  5 18  1  0  0  0  0
  6  7  1  0  0  0  0
  6 18  1  0  0  0  0
  7  8  1  0  0  0  0
  8  9  1  0  0  0  0
 10 15  1  0  0  0  0
 10 19  1  0  0  0  0
 11 12  1  0  0  0  0
 11 20  1  0  0  0  0
 11 21  2  0  0  0  0
 12 24  1  0  0  0  0
 12 13  2  0  0  0  0
 13 22  1  0  0  0  0
 14 25  3  0  0  0  0
 14 23  1  0  0  0  0
 15 16  1  0  0  0  0
 16 17  2  0  0  0  0
 17 20  1  0  0  0  0
 22 23  2  0  0  0  0
 23 24  1  0  0  0  0
M  END
>  <DATABASE_ID>
DB07167

>  <DATABASE_NAME>
drugbank

>  <SMILES>
CC1CCN(CC1)C1=CC=C(CO)C=C1NC(=O)C1=CC=C(O1)C#N

>  <INCHI_IDENTIFIER>
InChI=1S/C19H21N3O3/c1-13-6-8-22(9-7-13)17-4-2-14(12-23)10-16(17)21-19(24)18-5-3-15(11-20)25-18/h2-5,10,13,23H,6-9,12H2,1H3,(H,21,24)

>  <INCHI_KEY>
NNPCFFIJVKYGHR-UHFFFAOYSA-N

>  <FORMULA>
C19H21N3O3

>  <MOLECULAR_WEIGHT>
339.3883

>  <EXACT_MASS>
339.158291553

>  <JCHEM_ACCEPTOR_COUNT>
4

>  <JCHEM_ATOM_COUNT>
46

>  <JCHEM_AVERAGE_NEUTRAL_MICROSPECIES_CHARGE>
0.0009663524615136135

>  <JCHEM_AVERAGE_POLARIZABILITY>
36.94306199476199

>  <JCHEM_BIOAVAILABILITY>
1

>  <JCHEM_DONOR_COUNT>
2

>  <JCHEM_FORMAL_CHARGE>
0

>  <JCHEM_GHOSE_FILTER>
1

>  <JCHEM_IUPAC>
5-cyano-N-[5-(hydroxymethyl)-2-(4-methylpiperidin-1-yl)phenyl]furan-2-carboxamide

>  <ALOGPS_LOGP>
3.01

>  <JCHEM_LOGP>
2.379553896999999

>  <ALOGPS_LOGS>
-2.96

>  <JCHEM_MDDR_LIKE_RULE>
0

>  <JCHEM_NEUTRAL_CHARGE>
0

>  <JCHEM_NUMBER_OF_RINGS>
3

>  <JCHEM_PHYSIOLOGICAL_CHARGE>
0

>  <JCHEM_PKA>
15.127547276723545

>  <JCHEM_PKA_STRONGEST_ACIDIC>
13.251827706834954

>  <JCHEM_PKA_STRONGEST_BASIC>
3.9858105760889715

>  <JCHEM_POLAR_SURFACE_AREA>
89.5

>  <JCHEM_REFRACTIVITY>
97.51659999999998

>  <JCHEM_ROTATABLE_BOND_COUNT>
4

>  <JCHEM_RULE_OF_FIVE>
1

>  <ALOGPS_SOLUBILITY>
3.74e-01 g/l

>  <JCHEM_TRADITIONAL_IUPAC>
biotin

>  <JCHEM_VEBER_RULE>
0

>  <DRUGBANK_ID>
DB07167

>  <DRUG_GROUPS>
experimental

>  <GENERIC_NAME>
5-CYANO-FURAN-2-CARBOXYLIC ACID [5-HYDROXYMETHYL-2-(4-METHYL-PIPERIDIN-1-YL)-PHENYL]-AMIDE

$$$$
550
 OpenBabel05042401512D

 32 35  0  0  1  0  0  0  0  0999 V2000
   -4.1127   -0.1210    0.0000 O   0  0  0  0  0  0  0  0  0  0  0  0
   -4.8100   -1.6165    0.0000 O   0  0  0  0  0  0  0  0  0  0  0  0
   -3.0603    0.8429    0.0000 O   0  0  0  0  0  0  0  0  0  0  0  0
   -1.6531    1.0910    0.0000 O   0  0  0  0  0  0  0  0  0  0  0  0
    1.4305   -1.4892    0.0000 O   0  0  0  0  0  0  0  0  0  0  0  0
   -2.8176   -0.7249    0.0000 C   0  0  2  0  0  0  0  0  0  0  0  0
   -2.1418   -0.2517    0.0000 C   0  0  2  0  0  0  0  0  0  0  0  0
   -2.0699   -1.0736    0.0000 C   0  0  0  0  0  0  0  0  0  0  0  0
   -2.2851    0.5607    0.0000 C   0  0  0  0  0  0  0  0  0  0  0  0
   -1.4274    0.1608    0.0000 C   0  0  0  0  0  0  0  0  0  0  0  0
   -3.6395   -0.7968    0.0000 C   0  0  0  0  0  0  0  0  0  0  0  0
   -3.9882   -1.5445    0.0000 N   0  0  0  0  0  0  0  0  0  0  0  0
   -3.2036    1.6554    0.0000 C   0  0  0  0  0  0  0  0  0  0  0  0
   -0.7129   -0.2517    0.0000 C   0  0  0  0  0  0  0  0  0  0  0  0
    0.0016    0.1608    0.0000 C   0  0  0  0  0  0  0  0  0  0  0  0
    0.7160   -0.2517    0.0000 C   0  0  0  0  0  0  0  0  0  0  0  0
    0.7160   -1.0767    0.0000 C   0  0  0  0  0  0  0  0  0  0  0  0
    0.0016   -1.4892    0.0000 C   0  0  0  0  0  0  0  0  0  0  0  0
   -0.7129   -1.0767    0.0000 C   0  0  0  0  0  0  0  0  0  0  0  0
    2.1450   -1.0767    0.0000 C   0  0  0  0  0  0  0  0  0  0  0  0
    2.1450   -0.2517    0.0000 C   0  0  0  0  0  0  0  0  0  0  0  0
    1.4305    0.1608    0.0000 C   0  0  0  0  0  0  0  0  0  0  0  0
    1.4305    0.9858    0.0000 C   0  0  0  0  0  0  0  0  0  0  0  0
    2.1450    1.3983    0.0000 N   0  0  0  0  0  0  0  0  0  0  0  0
    2.8595    0.1608    0.0000 C   0  0  0  0  0  0  0  0  0  0  0  0
    2.8595    0.9858    0.0000 C   0  0  0  0  0  0  0  0  0  0  0  0
    3.5739    1.3983    0.0000 C   0  0  0  0  0  0  0  0  0  0  0  0
    4.2884    0.9858    0.0000 C   0  0  0  0  0  0  0  0  0  0  0  0
    4.2884    0.1608    0.0000 C   0  0  0  0  0  0  0  0  0  0  0  0
    3.5739   -0.2517    0.0000 C   0  0  0  0  0  0  0  0  0  0  0  0
    0.7160    1.3983    0.0000 C   0  0  0  0  0  0  0  0  0  0  0  0
   -3.0174   -0.1762    0.0000 H   0  0  0  0  0  0  0  0  0  0  0  0
  1 11  2  0  0  0  0
  2 12  1  0  0  0  0
  3  9  1  0  0  0  0
  3 13  1  0  0  0  0
  4  9  2  0  0  0  0
  5 17  1  0  0  0  0
  5 20  1  0  0  0  0
  6  7  1  0  0  0  0
  6  8  1  0  0  0  0
  6 11  1  0  0  0  0
  6 32  1  1  0  0  0
  7  8  1  0  0  0  0
  7  9  1  1  0  0  0
  7 10  1  0  0  0  0
 10 14  1  0  0  0  0
 11 12  1  0  0  0  0
 14 15  2  0  0  0  0
 14 19  1  0  0  0  0
 15 16  1  0  0  0  0
 16 17  2  0  0  0  0
 17 18  1  0  0  0  0
 18 19  2  0  0  0  0
 20 21  1  0  0  0  0
 21 22  2  0  0  0  0
 21 25  1  0  0  0  0
 22 23  1  0  0  0  0
 23 24  2  0  0  0  0
 23 31  1  0  0  0  0
 24 26  1  0  0  0  0
 25 26  2  0  0  0  0
 25 30  1  0  0  0  0
 26 27  1  0  0  0  0
 27 28  2  0  0  0  0
 28 29  1  0  0  0  0
 29 30  2  0  0  0  0
M  END
>  <DATABASE_ID>
DB07147

>  <DATABASE_NAME>
drugbank

>  <SMILES>
[H][C@@]1(C[C@]1(CC1=CC=C(OCC2=CC(C)=NC3=C2C=CC=C3)C=C1)C(=O)OC)C(=O)NO

>  <INCHI_IDENTIFIER>
InChI=1S/C24H24N2O5/c1-15-11-17(19-5-3-4-6-21(19)25-15)14-31-18-9-7-16(8-10-18)12-24(23(28)30-2)13-20(24)22(27)26-29/h3-11,20,29H,12-14H2,1-2H3,(H,26,27)/t20-,24+/m1/s1

>  <INCHI_KEY>
HJWMYFBKJRVWJY-YKSBVNFPSA-N

>  <FORMULA>
C24H24N2O5

>  <MOLECULAR_WEIGHT>
420.4578

>  <EXACT_MASS>
420.168521888

>  <JCHEM_ACCEPTOR_COUNT>
5

>  <JCHEM_ATOM_COUNT>
55

>  <JCHEM_AVERAGE_NEUTRAL_MICROSPECIES_CHARGE>
-0.003296668861921216

>  <JCHEM_AVERAGE_POLARIZABILITY>
44.95254844771483

>  <JCHEM_BIOAVAILABILITY>
1

>  <JCHEM_DONOR_COUNT>
2

>  <JCHEM_FORMAL_CHARGE>
0

>  <JCHEM_GHOSE_FILTER>
1

>  <JCHEM_IUPAC>
methyl (1R,2S)-2-(hydroxycarbamoyl)-1-({4-[(2-methylquinolin-4-yl)methoxy]phenyl}methyl)cyclopropane-1-carboxylate

>  <ALOGPS_LOGP>
3.81

>  <JCHEM_LOGP>
3.105178352333334

>  <ALOGPS_LOGS>
-5.26

>  <JCHEM_MDDR_LIKE_RULE>
1

>  <JCHEM_NEUTRAL_CHARGE>
0

>  <JCHEM_NUMBER_OF_RINGS>
4

>  <JCHEM_PHYSIOLOGICAL_CHARGE>
0

>  <JCHEM_PKA>
17.16814423334848

>  <JCHEM_PKA_STRONGEST_ACIDIC>
8.861028805784917

>  <JCHEM_PKA_STRONGEST_BASIC>
5.016879937590146

>  <JCHEM_POLAR_SURFACE_AREA>
97.75

>  <JCHEM_REFRACTIVITY>
113.42430000000002

>  <JCHEM_ROTATABLE_BOND_COUNT>
8

>  <JCHEM_RULE_OF_FIVE>
1

>  <ALOGPS_SOLUBILITY>
2.30e-03 g/l

>  <JCHEM_TRADITIONAL_IUPAC>
tetrahydrofolic acid

>  <JCHEM_VEBER_RULE>
0

>  <DRUGBANK_ID>
DB07147

>  <DRUG_GROUPS>
experimental

>  <GENERIC_NAME>
methyl (1R,2S)-2-(hydroxycarbamoyl)-1-{4-[(2-methylquinolin-4-yl)methoxy]benzyl}cyclopropanecarboxylate

$$$$
547
 OpenBabel05042401512D

 30 34  0  0  0  0  0  0  0  0999 V2000
    2.3376   -4.8893    0.0000 C   0  0  0  0  0  0  0  0  0  0  0  0
    1.6232   -5.3018    0.0000 N   0  0  0  0  0  0  0  0  0  0  0  0
    0.9087   -4.8893    0.0000 C   0  0  0  0  0  0  0  0  0  0  0  0
    0.9087   -4.0643    0.0000 C   0  0  0  0  0  0  0  0  0  0  0  0
    1.6232   -3.6518    0.0000 C   0  0  0  0  0  0  0  0  0  0  0  0
    2.3376   -4.0643    0.0000 C   0  0  0  0  0  0  0  0  0  0  0  0
    0.1241   -5.1443    0.0000 O   0  0  0  0  0  0  0  0  0  0  0  0
   -0.3608   -4.4768    0.0000 C   0  0  0  0  0  0  0  0  0  0  0  0
    0.1241   -3.8094    0.0000 C   0  0  0  0  0  0  0  0  0  0  0  0
   -0.1309   -3.0248    0.0000 C   0  0  0  0  0  0  0  0  0  0  0  0
   -0.9378   -2.8532    0.0000 C   0  0  0  0  0  0  0  0  0  0  0  0
   -1.1928   -2.0686    0.0000 C   0  0  0  0  0  0  0  0  0  0  0  0
   -0.6407   -1.4555    0.0000 C   0  0  0  0  0  0  0  0  0  0  0  0
    0.1662   -1.6271    0.0000 C   0  0  0  0  0  0  0  0  0  0  0  0
    0.4212   -2.4117    0.0000 C   0  0  0  0  0  0  0  0  0  0  0  0
   -1.1858   -4.4768    0.0000 C   0  0  0  0  0  0  0  0  0  0  0  0
   -1.5983   -5.1913    0.0000 C   0  0  0  0  0  0  0  0  0  0  0  0
   -2.4233   -5.1913    0.0000 C   0  0  0  0  0  0  0  0  0  0  0  0
   -2.8358   -4.4768    0.0000 C   0  0  0  0  0  0  0  0  0  0  0  0
   -2.4233   -3.7624    0.0000 C   0  0  0  0  0  0  0  0  0  0  0  0
   -1.5983   -3.7624    0.0000 C   0  0  0  0  0  0  0  0  0  0  0  0
    1.6232   -2.8268    0.0000 N   0  0  0  0  0  0  0  0  0  0  0  0
    0.9087   -2.4143    0.0000 C   0  0  0  0  0  0  0  0  0  0  0  0
    0.9087   -1.5893    0.0000 C   0  0  0  0  0  0  0  0  0  0  0  0
    1.6232   -1.1768    0.0000 N   0  0  0  0  0  0  0  0  0  0  0  0
    2.3376   -1.5893    0.0000 C   0  0  0  0  0  0  0  0  0  0  0  0
    3.0521   -1.1768    0.0000 C   0  0  0  0  0  0  0  0  0  0  0  0
    3.0521   -0.3518    0.0000 N   0  0  0  0  0  0  0  0  0  0  0  0
    2.3376    0.0607    0.0000 C   0  0  0  0  0  0  0  0  0  0  0  0
    1.6232   -0.3518    0.0000 C   0  0  0  0  0  0  0  0  0  0  0  0
  1  2  2  0  0  0  0
  1  6  1  0  0  0  0
  2  3  1  0  0  0  0
  3  7  1  0  0  0  0
  3  4  2  0  0  0  0
  4  9  1  0  0  0  0
  4  5  1  0  0  0  0
  5  6  2  0  0  0  0
  5 22  1  0  0  0  0
  7  8  1  0  0  0  0
  8 16  1  0  0  0  0
  8  9  2  0  0  0  0
  9 10  1  0  0  0  0
 10 11  2  0  0  0  0
 10 15  1  0  0  0  0
 11 12  1  0  0  0  0
 12 13  2  0  0  0  0
 13 14  1  0  0  0  0
 14 15  2  0  0  0  0
 16 17  1  0  0  0  0
 16 21  2  0  0  0  0
 17 18  2  0  0  0  0
 18 19  1  0  0  0  0
 19 20  2  0  0  0  0
 20 21  1  0  0  0  0
 22 23  1  0  0  0  0
 23 24  1  0  0  0  0
 24 25  1  0  0  0  0
 25 30  1  0  0  0  0
 25 26  1  0  0  0  0
 26 27  1  0  0  0  0
 27 28  1  0  0  0  0
 28 29  1  0  0  0  0
 29 30  1  0  0  0  0
M  END
>  <DATABASE_ID>
DB07146

>  <DATABASE_NAME>
drugbank

>  <SMILES>
C(CN1CCNCC1)NC1=CC=NC2=C1C(=C(O2)C1=CC=CC=C1)C1=CC=CC=C1

>  <INCHI_IDENTIFIER>
InChI=1S/C25H26N4O/c1-3-7-19(8-4-1)22-23-21(27-15-18-29-16-13-26-14-17-29)11-12-28-25(23)30-24(22)20-9-5-2-6-10-20/h1-12,26H,13-18H2,(H,27,28)

>  <INCHI_KEY>
QUIQCYFSBGOBKE-UHFFFAOYSA-N

>  <FORMULA>
C25H26N4O

>  <MOLECULAR_WEIGHT>
398.5001

>  <EXACT_MASS>
398.210661474

>  <JCHEM_ACCEPTOR_COUNT>
4

>  <JCHEM_ATOM_COUNT>
56

>  <JCHEM_AVERAGE_NEUTRAL_MICROSPECIES_CHARGE>
0.9960693694720194

>  <JCHEM_AVERAGE_POLARIZABILITY>
45.2416314234726

>  <JCHEM_BIOAVAILABILITY>
1

>  <JCHEM_DONOR_COUNT>
2

>  <JCHEM_FORMAL_CHARGE>
0

>  <JCHEM_GHOSE_FILTER>
1

>  <JCHEM_IUPAC>
2,3-diphenyl-N-[2-(piperazin-1-yl)ethyl]furo[2,3-b]pyridin-4-amine

>  <ALOGPS_LOGP>
4.03

>  <JCHEM_LOGP>
3.4521049836666666

>  <ALOGPS_LOGS>
-4.07

>  <JCHEM_MDDR_LIKE_RULE>
1

>  <JCHEM_NEUTRAL_CHARGE>
1

>  <JCHEM_NUMBER_OF_RINGS>
5

>  <JCHEM_PHYSIOLOGICAL_CHARGE>
1

>  <JCHEM_PKA_STRONGEST_BASIC>
9.239594460870252

>  <JCHEM_POLAR_SURFACE_AREA>
53.330000000000005

>  <JCHEM_REFRACTIVITY>
121.81299999999999

>  <JCHEM_ROTATABLE_BOND_COUNT>
6

>  <JCHEM_RULE_OF_FIVE>
1

>  <ALOGPS_SOLUBILITY>
3.41e-02 g/l

>  <JCHEM_TRADITIONAL_IUPAC>
tetrahydrofolic acid

>  <JCHEM_VEBER_RULE>
0

>  <DRUGBANK_ID>
DB07146

>  <DRUG_GROUPS>
experimental

>  <GENERIC_NAME>
2,3-DIPHENYL-N-(2-PIPERAZIN-1-YLETHYL)FURO[2,3-B]PYRIDIN-4-AMINE

$$$$
47D
 OpenBabel05042401512D

 23 25  0  0  0  0  0  0  0  0999 V2000
    2.9420    2.6754    0.0000 C   0  0  0  0  0  0  0  0  0  0  0  0
    2.1573    2.9303    0.0000 N   0  0  0  0  0  0  0  0  0  0  0  0
    1.6724    2.2629    0.0000 C   0  0  0  0  0  0  0  0  0  0  0  0
    0.8474    2.2629    0.0000 C   0  0  0  0  0  0  0  0  0  0  0  0
    0.4349    1.5484    0.0000 N   0  0  0  0  0  0  0  0  0  0  0  0
   -0.3901    1.5484    0.0000 C   0  0  0  0  0  0  0  0  0  0  0  0
   -0.8026    2.2629    0.0000 O   0  0  0  0  0  0  0  0  0  0  0  0
   -0.8026    0.8340    0.0000 N   0  0  0  0  0  0  0  0  0  0  0  0
   -1.6276    0.8340    0.0000 C   0  0  0  0  0  0  0  0  0  0  0  0
   -2.0401    0.1195    0.0000 C   0  0  0  0  0  0  0  0  0  0  0  0
   -2.8651    0.1195    0.0000 O   0  0  0  0  0  0  0  0  0  0  0  0
   -1.6276   -0.5950    0.0000 O   0  0  0  0  0  0  0  0  0  0  0  0
   -0.3901    0.1195    0.0000 C   0  0  0  0  0  0  0  0  0  0  0  0
    0.4349    0.1195    0.0000 C   0  0  0  0  0  0  0  0  0  0  0  0
    0.8474    0.8340    0.0000 C   0  0  0  0  0  0  0  0  0  0  0  0
    1.6724    0.8340    0.0000 O   0  0  0  0  0  0  0  0  0  0  0  0
    2.1573    1.5955    0.0000 S   0  0  0  0  0  0  0  0  0  0  0  0
    2.9420    1.8504    0.0000 C   0  0  0  0  0  0  0  0  0  0  0  0
    3.6564    1.4379    0.0000 C   0  0  0  0  0  0  0  0  0  0  0  0
    4.3709    1.8504    0.0000 C   0  0  0  0  0  0  0  0  0  0  0  0
    4.3709    2.6754    0.0000 C   0  0  0  0  0  0  0  0  0  0  0  0
    5.0854    3.0879    0.0000 Cl  0  0  0  0  0  0  0  0  0  0  0  0
    3.6564    3.0879    0.0000 C   0  0  0  0  0  0  0  0  0  0  0  0
  1 23  2  0  0  0  0
  1 18  1  0  0  0  0
  1  2  1  0  0  0  0
  2  3  2  0  0  0  0
  3 17  1  0  0  0  0
  3  4  1  0  0  0  0
  4  5  1  0  0  0  0
  5 15  1  0  0  0  0
  5  6  1  0  0  0  0
  6  7  2  0  0  0  0
  6  8  1  0  0  0  0
  8 13  1  0  0  0  0
  8  9  1  0  0  0  0
  9 10  1  0  0  0  0
 10 12  2  0  0  0  0
 10 11  1  0  0  0  0
 13 14  2  0  0  0  0
 14 15  1  0  0  0  0
 15 16  2  0  0  0  0
 17 18  1  0  0  0  0
 18 19  2  0  0  0  0
 19 20  1  0  0  0  0
 20 21  2  0  0  0  0
 21 22  1  0  0  0  0
 21 23  1  0  0  0  0
M  END
>  <DATABASE_ID>
DB07093

>  <DATABASE_NAME>
drugbank

>  <SMILES>
OC(=O)CN1C=CC(=O)N(CC2=NC3=CC(Cl)=CC=C3S2)C1=O

>  <INCHI_IDENTIFIER>
InChI=1S/C14H10ClN3O4S/c15-8-1-2-10-9(5-8)16-11(23-10)6-18-12(19)3-4-17(14(18)22)7-13(20)21/h1-5H,6-7H2,(H,20,21)

>  <INCHI_KEY>
RQWICELTTDJODO-UHFFFAOYSA-N

>  <FORMULA>
C14H10ClN3O4S

>  <MOLECULAR_WEIGHT>
351.765

>  <EXACT_MASS>
351.00805422

>  <JCHEM_ACCEPTOR_COUNT>
5

>  <JCHEM_ATOM_COUNT>
33

>  <JCHEM_AVERAGE_NEUTRAL_MICROSPECIES_CHARGE>
-0.9994873889897798

>  <JCHEM_AVERAGE_POLARIZABILITY>
32.58037950610222

>  <JCHEM_BIOAVAILABILITY>
1

>  <JCHEM_DONOR_COUNT>
1

>  <JCHEM_FORMAL_CHARGE>
0

>  <JCHEM_GHOSE_FILTER>
1

>  <JCHEM_IUPAC>
2-{3-[(5-chloro-1,3-benzothiazol-2-yl)methyl]-2,4-dioxo-1,2,3,4-tetrahydropyrimidin-1-yl}acetic acid

>  <ALOGPS_LOGP>
1.98

>  <JCHEM_LOGP>
1.427041419874814

>  <ALOGPS_LOGS>
-4.47

>  <JCHEM_MDDR_LIKE_RULE>
0

>  <JCHEM_NEUTRAL_CHARGE>
-1

>  <JCHEM_NUMBER_OF_RINGS>
3

>  <JCHEM_PHYSIOLOGICAL_CHARGE>
-1

>  <JCHEM_PKA_STRONGEST_ACIDIC>
3.741832064981811

>  <JCHEM_PKA_STRONGEST_BASIC>
2.3026620211842523

>  <JCHEM_POLAR_SURFACE_AREA>
90.81

>  <JCHEM_REFRACTIVITY>
81.6624

>  <JCHEM_ROTATABLE_BOND_COUNT>
4

>  <JCHEM_RULE_OF_FIVE>
1

>  <ALOGPS_SOLUBILITY>
1.18e-02 g/l

>  <JCHEM_TRADITIONAL_IUPAC>
biotin

>  <JCHEM_VEBER_RULE>
0

>  <DRUGBANK_ID>
DB07093

>  <DRUG_GROUPS>
experimental

>  <GENERIC_NAME>
{3-[(5-CHLORO-1,3-BENZOTHIAZOL-2-YL)METHYL]-2,4-DIOXO-3,4-DIHYDROPYRIMIDIN-1(2H)-YL}ACETIC ACID

$$$$

 OpenBabel05042401512D

 26 29  0  0  0  0  0  0  0  0999 V2000
   -1.0076    1.2822    0.0000 N   0  0  0  0  0  0  0  0  0  0  0  0
   -0.5227    0.6147    0.0000 C   0  0  0  0  0  0  0  0  0  0  0  0
   -1.0076   -0.0526    0.0000 C   0  0  0  0  0  0  0  0  0  0  0  0
   -1.7922    0.2023    0.0000 C   0  0  0  0  0  0  0  0  0  0  0  0
   -2.5067   -0.2101    0.0000 C   0  0  0  0  0  0  0  0  0  0  0  0
   -3.2212    0.2023    0.0000 C   0  0  0  0  0  0  0  0  0  0  0  0
   -3.2212    1.0273    0.0000 C   0  0  0  0  0  0  0  0  0  0  0  0
   -2.5067    1.4398    0.0000 C   0  0  0  0  0  0  0  0  0  0  0  0
   -1.7922    1.0272    0.0000 C   0  0  0  0  0  0  0  0  0  0  0  0
    0.0543    2.2384    0.0000 C   0  0  0  0  0  0  0  0  0  0  0  0
   -0.7527    2.0669    0.0000 C   0  0  0  0  0  0  0  0  0  0  0  0
    0.6376    1.6549    0.0000 O   0  0  0  0  0  0  0  0  0  0  0  0
    0.2678    3.0352    0.0000 O   0  0  0  0  0  0  0  0  0  0  0  0
   -0.7527   -0.8372    0.0000 C   0  0  0  0  0  0  0  0  0  0  0  0
    0.6673   -0.4567    0.0000 S   0  0  0  0  0  0  0  0  0  0  0  0
    0.0542   -1.0088    0.0000 C   0  0  0  0  0  0  0  0  0  0  0  0
    0.3897   -1.7624    0.0000 N   0  0  0  0  0  0  0  0  0  0  0  0
    1.2102   -1.6762    0.0000 C   0  0  0  0  0  0  0  0  0  0  0  0
    1.3818   -0.8692    0.0000 C   0  0  0  0  0  0  0  0  0  0  0  0
    1.8234   -2.2282    0.0000 C   0  0  0  0  0  0  0  0  0  0  0  0
    2.6080   -1.9733    0.0000 C   0  0  0  0  0  0  0  0  0  0  0  0
    2.7795   -1.1664    0.0000 C   0  0  0  0  0  0  0  0  0  0  0  0
    2.1664   -0.6143    0.0000 C   0  0  0  0  0  0  0  0  0  0  0  0
    2.3380    0.1925    0.0000 F   0  0  0  0  0  0  0  0  0  0  0  0
    3.2212   -2.5254    0.0000 F   0  0  0  0  0  0  0  0  0  0  0  0
    1.6518   -3.0353    0.0000 F   0  0  0  0  0  0  0  0  0  0  0  0
  1  2  1  0  0  0  0
  1  9  1  0  0  0  0
  1 11  1  0  0  0  0
  2  3  2  0  0  0  0
  3  4  1  0  0  0  0
  3 14  1  0  0  0  0
  4  5  1  0  0  0  0
  4  9  2  0  0  0  0
  5  6  2  0  0  0  0
  6  7  1  0  0  0  0
  7  8  2  0  0  0  0
  8  9  1  0  0  0  0
 10 11  1  0  0  0  0
 10 12  1  0  0  0  0
 10 13  2  0  0  0  0
 14 16  1  0  0  0  0
 15 16  1  0  0  0  0
 15 19  1  0  0  0  0
 16 17  2  0  0  0  0
 17 18  1  0  0  0  0
 18 19  1  0  0  0  0
 18 20  2  0  0  0  0
 19 23  2  0  0  0  0
 20 21  1  0  0  0  0
 20 26  1  0  0  0  0
 21 22  2  0  0  0  0
 21 25  1  0  0  0  0
 22 23  1  0  0  0  0
 23 24  1  0  0  0  0
M  END
>  <DATABASE_ID>
DB07063

>  <DATABASE_NAME>
drugbank

>  <SMILES>
OC(=O)CN1C=C(CC2=NC3=C(F)C(F)=CC(F)=C3S2)C2=C1C=CC=C2

>  <INCHI_IDENTIFIER>
InChI=1S/C18H11F3N2O2S/c19-11-6-12(20)18-17(16(11)21)22-14(26-18)5-9-7-23(8-15(24)25)13-4-2-1-3-10(9)13/h1-4,6-7H,5,8H2,(H,24,25)

>  <INCHI_KEY>
KYHVTMFADJNSGS-UHFFFAOYSA-N

>  <FORMULA>
C18H11F3N2O2S

>  <MOLECULAR_WEIGHT>
376.352

>  <EXACT_MASS>
376.049332911

>  <JCHEM_ACCEPTOR_COUNT>
3

>  <JCHEM_ATOM_COUNT>
37

>  <JCHEM_AVERAGE_NEUTRAL_MICROSPECIES_CHARGE>
-0.9983648551285529

>  <JCHEM_AVERAGE_POLARIZABILITY>
33.81078186388418

>  <JCHEM_BIOAVAILABILITY>
1

>  <JCHEM_DONOR_COUNT>
1

>  <JCHEM_FORMAL_CHARGE>
0

>  <JCHEM_GHOSE_FILTER>
1

>  <JCHEM_IUPAC>
2-{3-[(4,5,7-trifluoro-1,3-benzothiazol-2-yl)methyl]-1H-indol-1-yl}acetic acid

>  <ALOGPS_LOGP>
3.94

>  <JCHEM_LOGP>
4.299403491666666

>  <ALOGPS_LOGS>
-4.53

>  <JCHEM_MDDR_LIKE_RULE>
0

>  <JCHEM_NEUTRAL_CHARGE>
-1

>  <JCHEM_NUMBER_OF_RINGS>
4

>  <JCHEM_PHYSIOLOGICAL_CHARGE>
-1

>  <JCHEM_PKA_STRONGEST_ACIDIC>
4.215477999116998

>  <JCHEM_PKA_STRONGEST_BASIC>
1.4487013908252853

>  <JCHEM_POLAR_SURFACE_AREA>
55.120000000000005

>  <JCHEM_REFRACTIVITY>
89.00829999999998

>  <JCHEM_ROTATABLE_BOND_COUNT>
4

>  <JCHEM_RULE_OF_FIVE>
1

>  <ALOGPS_SOLUBILITY>
1.10e-02 g/l

>  <JCHEM_TRADITIONAL_IUPAC>
mozenavir

>  <JCHEM_VEBER_RULE>
0

>  <DRUGBANK_ID>
DB07063

>  <DRUG_GROUPS>
investigational

>  <GENERIC_NAME>
Lidorestat

>  <SYNONYMS>
Lidorestat

$$$$
35F
 OpenBabel05042401512D

 28 32  0  0  0  0  0  0  0  0999 V2000
    1.6815    0.4963    0.0000 C   0  0  0  0  0  0  0  0  0  0  0  0
    0.9670    0.9088    0.0000 C   0  0  0  0  0  0  0  0  0  0  0  0
    0.9670    1.7338    0.0000 C   0  0  0  0  0  0  0  0  0  0  0  0
   -0.0726   -0.1308    0.0000 C   0  0  0  0  0  0  0  0  0  0  0  0
   -0.5824   -1.7000    0.0000 C   0  0  0  0  0  0  0  0  0  0  0  0
    0.4795   -0.7439    0.0000 C   0  0  0  0  0  0  0  0  0  0  0  0
    3.1104    0.4963    0.0000 C   0  0  0  0  0  0  0  0  0  0  0  0
    4.4161    0.2187    0.0000 C   0  0  0  0  0  0  0  0  0  0  0  0
   -2.4935   -0.6454    0.0000 C   0  0  0  0  0  0  0  0  0  0  0  0
   -3.3005   -0.8169    0.0000 C   0  0  0  0  0  0  0  0  0  0  0  0
   -4.6280   -0.6774    0.0000 C   0  0  0  0  0  0  0  0  0  0  0  0
   -2.2385    0.1392    0.0000 O   0  0  0  0  0  0  0  0  0  0  0  0
   -3.6360   -1.5706    0.0000 O   0  0  0  0  0  0  0  0  0  0  0  0
   -4.4565   -1.4843    0.0000 C   0  0  0  0  0  0  0  0  0  0  0  0
   -3.9135   -0.2649    0.0000 C   0  0  0  0  0  0  0  0  0  0  0  0
   -1.9414   -1.2585    0.0000 N   0  0  0  0  0  0  0  0  0  0  0  0
   -1.1345   -1.0869    0.0000 C   0  0  0  0  0  0  0  0  0  0  0  0
   -0.8795   -0.3023    0.0000 C   0  0  0  0  0  0  0  0  0  0  0  0
    0.2245   -1.5285    0.0000 C   0  0  0  0  0  0  0  0  0  0  0  0
    0.1824    0.6538    0.0000 C   0  0  0  0  0  0  0  0  0  0  0  0
   -0.3026    1.3213    0.0000 N   0  0  0  0  0  0  0  0  0  0  0  0
    0.1824    1.9887    0.0000 N   0  0  0  0  0  0  0  0  0  0  0  0
    1.6815    2.1463    0.0000 C   0  0  0  0  0  0  0  0  0  0  0  0
    2.3959    1.7338    0.0000 C   0  0  0  0  0  0  0  0  0  0  0  0
    2.3959    0.9088    0.0000 C   0  0  0  0  0  0  0  0  0  0  0  0
    3.8641    0.8318    0.0000 N   0  0  0  0  0  0  0  0  0  0  0  0
    4.0036   -0.4957    0.0000 N   0  0  0  0  0  0  0  0  0  0  0  0
    3.1966   -0.3242    0.0000 N   0  0  0  0  0  0  0  0  0  0  0  0
  1  2  2  0  0  0  0
  1 25  1  0  0  0  0
  2  3  1  0  0  0  0
  2 20  1  0  0  0  0
  3 22  1  0  0  0  0
  3 23  2  0  0  0  0
  4  6  2  0  0  0  0
  4 18  1  0  0  0  0
  4 20  1  0  0  0  0
  5 17  1  0  0  0  0
  5 19  2  0  0  0  0
  6 19  1  0  0  0  0
  7 25  1  0  0  0  0
  7 26  1  0  0  0  0
  7 28  2  0  0  0  0
  8 26  2  0  0  0  0
  8 27  1  0  0  0  0
  9 10  1  0  0  0  0
  9 12  2  0  0  0  0
  9 16  1  0  0  0  0
 10 13  1  0  0  0  0
 10 15  2  0  0  0  0
 11 14  2  0  0  0  0
 11 15  1  0  0  0  0
 13 14  1  0  0  0  0
 16 17  1  0  0  0  0
 17 18  2  0  0  0  0
 20 21  2  0  0  0  0
 21 22  1  0  0  0  0
 23 24  1  0  0  0  0
 24 25  2  0  0  0  0
 27 28  1  0  0  0  0
M  END
>  <DATABASE_ID>
DB07020

>  <DATABASE_NAME>
drugbank

>  <SMILES>
O=C(NC1=CC(=CC=C1)C1=NNC2=CC=C(C=C12)C1=NNC=N1)C1=CC=CO1

>  <INCHI_IDENTIFIER>
InChI=1S/C20H14N6O2/c27-20(17-5-2-8-28-17)23-14-4-1-3-12(9-14)18-15-10-13(19-21-11-22-26-19)6-7-16(15)24-25-18/h1-11H,(H,23,27)(H,24,25)(H,21,22,26)

>  <INCHI_KEY>
LMDMJDCLPIVGQD-UHFFFAOYSA-N

>  <FORMULA>
C20H14N6O2

>  <MOLECULAR_WEIGHT>
370.3642

>  <EXACT_MASS>
370.117823722

>  <JCHEM_ACCEPTOR_COUNT>
4

>  <JCHEM_ATOM_COUNT>
42

>  <JCHEM_AVERAGE_NEUTRAL_MICROSPECIES_CHARGE>
-0.0003028551126794409

>  <JCHEM_AVERAGE_POLARIZABILITY>
38.31714822258383

>  <JCHEM_BIOAVAILABILITY>
1

>  <JCHEM_DONOR_COUNT>
3

>  <JCHEM_FORMAL_CHARGE>
0

>  <JCHEM_GHOSE_FILTER>
1

>  <JCHEM_IUPAC>
N-{3-[5-(1H-1,2,4-triazol-3-yl)-1H-indazol-3-yl]phenyl}furan-2-carboxamide

>  <ALOGPS_LOGP>
3.52

>  <JCHEM_LOGP>
3.5248886933333328

>  <ALOGPS_LOGS>
-3.59

>  <JCHEM_MDDR_LIKE_RULE>
0

>  <JCHEM_NEUTRAL_CHARGE>
0

>  <JCHEM_NUMBER_OF_RINGS>
5

>  <JCHEM_PHYSIOLOGICAL_CHARGE>
0

>  <JCHEM_PKA>
12.999060864823262

>  <JCHEM_PKA_STRONGEST_ACIDIC>
10.506769012642184

>  <JCHEM_PKA_STRONGEST_BASIC>
1.8954267935498283

>  <JCHEM_POLAR_SURFACE_AREA>
112.49

>  <JCHEM_REFRACTIVITY>
117.0343

>  <JCHEM_ROTATABLE_BOND_COUNT>
4

>  <JCHEM_RULE_OF_FIVE>
1

>  <ALOGPS_SOLUBILITY>
9.41e-02 g/l

>  <JCHEM_TRADITIONAL_IUPAC>
tetrahydrofolic acid

>  <JCHEM_VEBER_RULE>
0

>  <DRUGBANK_ID>
DB07020

>  <DRUG_GROUPS>
experimental

>  <GENERIC_NAME>
N-{3-[5-(1H-1,2,4-triazol-3-yl)-1H-indazol-3-yl]phenyl}furan-2-carboxamide

$$$$

 OpenBabel05042401512D

 12 12  0  0  0  0  0  0  0  0999 V2000
    0.4103   -1.0709    0.0000 C   0  0  0  0  0  0  0  0  0  0  0  0
    0.8257   -0.3553    0.0000 C   0  0  0  0  0  0  0  0  0  0  0  0
    0.4103    0.3553    0.0000 C   0  0  0  0  0  0  0  0  0  0  0  0
   -0.4153    0.3553    0.0000 C   0  0  0  0  0  0  0  0  0  0  0  0
   -0.8257   -0.3553    0.0000 C   0  0  0  0  0  0  0  0  0  0  0  0
   -0.4153   -1.0709    0.0000 C   0  0  0  0  0  0  0  0  0  0  0  0
   -0.8257   -1.7864    0.0000 C   0  0  0  0  0  0  0  0  0  0  0  0
   -0.4153   -2.5021    0.0000 O   0  0  0  0  0  0  0  0  0  0  0  0
    0.8257    1.0709    0.0000 N   0  0  0  0  0  0  0  0  0  0  0  0
    0.4103    1.7865    0.0000 C   0  0  0  0  0  0  0  0  0  0  0  0
    0.8257    2.5021    0.0000 N   0  0  0  0  0  0  0  0  0  0  0  0
   -0.4153    1.7865    0.0000 N   0  0  0  0  0  0  0  0  0  0  0  0
  1  2  1  0  0  0  0
  1  6  2  0  0  0  0
  2  3  2  0  0  0  0
  3  4  1  0  0  0  0
  3  9  1  0  0  0  0
  4  5  2  0  0  0  0
  5  6  1  0  0  0  0
  6  7  1  0  0  0  0
  7  8  1  0  0  0  0
  9 10  1  0  0  0  0
 10 11  2  0  0  0  0
 10 12  1  0  0  0  0
M  END
>  <DATABASE_ID>
DB06900

>  <DATABASE_NAME>
drugbank

>  <SMILES>
NC(=N)NC1=CC=C(CO)C=C1

>  <INCHI_IDENTIFIER>
InChI=1S/C8H11N3O/c9-8(10)11-7-3-1-6(5-12)2-4-7/h1-4,12H,5H2,(H4,9,10,11)

>  <INCHI_KEY>
JAFHTIHHRCEJDS-UHFFFAOYSA-N

>  <FORMULA>
C8H11N3O

>  <MOLECULAR_WEIGHT>
165.1924

>  <EXACT_MASS>
165.090211989

>  <JCHEM_ACCEPTOR_COUNT>
4

>  <JCHEM_ATOM_COUNT>
23

>  <JCHEM_AVERAGE_POLARIZABILITY>
17.5614115112381

>  <JCHEM_BIOAVAILABILITY>
1

>  <JCHEM_DONOR_COUNT>
4

>  <JCHEM_FORMAL_CHARGE>
0

>  <JCHEM_GHOSE_FILTER>
1

>  <JCHEM_IUPAC>
N-[4-(hydroxymethyl)phenyl]guanidine

>  <ALOGPS_LOGP>
0.30

>  <JCHEM_LOGP>
0.17988906233333318

>  <ALOGPS_LOGS>
-2.28

>  <JCHEM_MDDR_LIKE_RULE>
0

>  <JCHEM_NUMBER_OF_RINGS>
1

>  <JCHEM_PHYSIOLOGICAL_CHARGE>
1

>  <JCHEM_PKA_STRONGEST_ACIDIC>
15.101104640838345

>  <JCHEM_PKA_STRONGEST_BASIC>
10.637668973557977

>  <JCHEM_POLAR_SURFACE_AREA>
82.13

>  <JCHEM_REFRACTIVITY>
59.0077

>  <JCHEM_ROTATABLE_BOND_COUNT>
2

>  <JCHEM_RULE_OF_FIVE>
1

>  <ALOGPS_SOLUBILITY>
8.58e-01 g/l

>  <JCHEM_TRADITIONAL_IUPAC>
biib021

>  <JCHEM_VEBER_RULE>
0

>  <DRUGBANK_ID>
DB06900

>  <DRUG_GROUPS>
experimental

>  <GENERIC_NAME>
1-[4-(hydroxymethyl)phenyl]guanidine

$$$$

 OpenBabel05042401512D

 19 20  0  0  1  0  0  0  0  0999 V2000
   -2.0265   -4.0304    0.0000 O   0  0  0  0  0  0  0  0  0  0  0  0
   -1.5484   -4.7022    0.0000 C   0  0  0  0  0  0  0  0  0  0  0  0
   -2.8008   -4.2752    0.0000 C   0  0  0  0  0  0  0  0  0  0  0  0
   -2.0265   -5.3511    0.0000 C   0  0  0  0  0  0  0  0  0  0  0  0
   -2.8008   -5.1063    0.0000 C   0  0  0  0  0  0  0  0  0  0  0  0
   -0.7286   -4.7022    0.0000 C   0  0  3  0  0  0  0  0  0  0  0  0
   -0.7286   -3.2790    0.0000 N   0  0  0  0  0  0  0  0  0  0  0  0
   -3.5123   -3.8653    0.0000 C   0  0  0  0  0  0  0  0  0  0  0  0
   -0.3187   -3.9962    0.0000 C   0  0  0  0  0  0  0  0  0  0  0  0
   -0.3187   -2.5674    0.0000 C   0  0  0  0  0  0  0  0  0  0  0  0
   -0.3187   -5.4194    0.0000 O   0  0  0  0  0  0  0  0  0  0  0  0
   -3.5123   -5.5162    0.0000 C   0  0  0  0  0  0  0  0  0  0  0  0
   -4.2296   -5.1063    0.0000 C   0  0  0  0  0  0  0  0  0  0  0  0
   -4.2296   -4.2752    0.0000 C   0  0  0  0  0  0  0  0  0  0  0  0
   -3.5123   -3.0456    0.0000 C   0  0  0  0  0  0  0  0  0  0  0  0
   -1.0247   -2.1405    0.0000 C   0  0  0  0  0  0  0  0  0  0  0  0
    0.1082   -1.8502    0.0000 C   0  0  0  0  0  0  0  0  0  0  0  0
    0.4099   -2.9773    0.0000 C   0  0  0  0  0  0  0  0  0  0  0  0
   -4.2296   -2.6300    0.0000 C   0  0  0  0  0  0  0  0  0  0  0  0
  2  1  1  0  0  0  0
  3  1  1  0  0  0  0
  4  2  2  0  0  0  0
  4  5  1  0  0  0  0
  5  3  2  0  0  0  0
  6  2  1  0  0  0  0
  7  9  1  0  0  0  0
  8  3  1  0  0  0  0
  9  6  1  0  0  0  0
 10  7  1  0  0  0  0
 11  6  1  0  0  0  0
 12  5  1  0  0  0  0
 12 13  2  0  0  0  0
 13 14  1  0  0  0  0
 14  8  2  0  0  0  0
 15  8  1  0  0  0  0
 16 10  1  0  0  0  0
 17 10  1  0  0  0  0
 18 10  1  0  0  0  0
 19 15  1  0  0  0  0
M  END
>  <DATABASE_ID>
DB06726

>  <DATABASE_NAME>
drugbank

>  <SMILES>
CCC1=CC=CC2=C1OC(=C2)C(O)CNC(C)(C)C

>  <INCHI_IDENTIFIER>
InChI=1S/C16H23NO2/c1-5-11-7-6-8-12-9-14(19-15(11)12)13(18)10-17-16(2,3)4/h6-9,13,17-18H,5,10H2,1-4H3

>  <INCHI_KEY>
SSEBTPPFLLCUMN-UHFFFAOYSA-N

>  <FORMULA>
C16H23NO2

>  <MOLECULAR_WEIGHT>
261.3593

>  <EXACT_MASS>
261.172878985

>  <JCHEM_ACCEPTOR_COUNT>
2

>  <JCHEM_ATOM_COUNT>
42

>  <JCHEM_AVERAGE_NEUTRAL_MICROSPECIES_CHARGE>
0.9942448921001016

>  <JCHEM_AVERAGE_POLARIZABILITY>
30.87871788197964

>  <JCHEM_BIOAVAILABILITY>
1

>  <JCHEM_DONOR_COUNT>
2

>  <JCHEM_FORMAL_CHARGE>
0

>  <JCHEM_GHOSE_FILTER>
1

>  <JCHEM_IUPAC>
2-(tert-butylamino)-1-(7-ethyl-1-benzofuran-2-yl)ethan-1-ol

>  <ALOGPS_LOGP>
3.24

>  <JCHEM_LOGP>
2.9923339300000005

>  <ALOGPS_LOGS>
-3.87

>  <JCHEM_MDDR_LIKE_RULE>
0

>  <JCHEM_NEUTRAL_CHARGE>
1

>  <JCHEM_NUMBER_OF_RINGS>
2

>  <JCHEM_PHYSIOLOGICAL_CHARGE>
1

>  <JCHEM_PKA_STRONGEST_ACIDIC>
13.05674456950811

>  <JCHEM_PKA_STRONGEST_BASIC>
9.23750676075615

>  <JCHEM_POLAR_SURFACE_AREA>
45.400000000000006

>  <JCHEM_REFRACTIVITY>
77.43490000000001

>  <JCHEM_ROTATABLE_BOND_COUNT>
5

>  <JCHEM_RULE_OF_FIVE>
1

>  <ALOGPS_SOLUBILITY>
3.56e-02 g/l

>  <JCHEM_TRADITIONAL_IUPAC>
tetrahydrofolic acid

>  <JCHEM_VEBER_RULE>
0

>  <DRUGBANK_ID>
DB06726

>  <DRUG_GROUPS>
experimental

>  <GENERIC_NAME>
Bufuralol

>  <SYNONYMS>
Bufuralol; Bufuralolum

>  <SALTS>
Bufuralol hydrochloride

$$$$

 OpenBabel05042401512D

 33 37  0  0  0  0  0  0  0  0999 V2000
   -0.5270   -3.4685    0.0000 C   0  0  0  0  0  0  0  0  0  0  0  0
   -0.5388   -2.6320    0.0000 C   0  0  0  0  0  0  0  0  0  0  0  0
    0.1662   -2.2037    0.0000 C   0  0  0  0  0  0  0  0  0  0  0  0
    0.9250   -2.6112    0.0000 C   0  0  0  0  0  0  0  0  0  0  0  0
    0.9368   -3.4476    0.0000 C   0  0  0  0  0  0  0  0  0  0  0  0
    0.1899   -3.8767    0.0000 C   0  0  0  0  0  0  0  0  0  0  0  0
    1.7161   -2.3491    0.0000 C   0  0  0  0  0  0  0  0  0  0  0  0
    2.1856   -3.0116    0.0000 C   0  0  0  0  0  0  0  0  0  0  0  0
    1.7351   -3.6874    0.0000 O   0  0  0  0  0  0  0  0  0  0  0  0
   -1.2559   -2.2238    0.0000 N   0  0  0  0  0  0  0  0  0  0  0  0
   -1.9608   -2.6522    0.0000 C   0  0  0  0  0  0  0  0  0  0  0  0
   -2.7197   -2.2447    0.0000 C   0  0  0  0  0  0  0  0  0  0  0  0
   -2.7315   -1.4082    0.0000 N   0  0  0  0  0  0  0  0  0  0  0  0
   -2.0266   -0.9798    0.0000 C   0  0  0  0  0  0  0  0  0  0  0  0
   -1.2678   -1.3873    0.0000 C   0  0  0  0  0  0  0  0  0  0  0  0
   -3.4505   -1.0022    0.0000 C   0  0  0  0  0  0  0  0  0  0  0  0
   -3.4427   -0.1794    0.0000 C   0  0  0  0  0  0  0  0  0  0  0  0
   -2.7254    0.2172    0.0000 C   0  0  0  0  0  0  0  0  0  0  0  0
   -2.0087   -0.1911    0.0000 C   0  0  0  0  0  0  0  0  0  0  0  0
    3.0223   -2.9998    0.0000 C   0  0  0  0  0  0  0  0  0  0  0  0
    3.4505   -3.7048    0.0000 N   0  0  0  0  0  0  0  0  0  0  0  0
    3.4303   -2.2827    0.0000 O   0  0  0  0  0  0  0  0  0  0  0  0
   -1.2965    0.2247    0.0000 C   0  0  0  0  0  0  0  0  0  0  0  0
   -0.6291   -0.2602    0.0000 C   0  0  0  0  0  0  0  0  0  0  0  0
   -1.0414    1.0093    0.0000 C   0  0  0  0  0  0  0  0  0  0  0  0
    0.0383    0.2246    0.0000 N   0  0  0  0  0  0  0  0  0  0  0  0
   -0.2164    1.0093    0.0000 C   0  0  0  0  0  0  0  0  0  0  0  0
   -1.4458    1.7286    0.0000 C   0  0  0  0  0  0  0  0  0  0  0  0
   -1.0251    2.4383    0.0000 C   0  0  0  0  0  0  0  0  0  0  0  0
   -0.2002    2.4288    0.0000 C   0  0  0  0  0  0  0  0  0  0  0  0
    0.2040    1.7097    0.0000 C   0  0  0  0  0  0  0  0  0  0  0  0
   -1.4294    3.1574    0.0000 C   0  0  0  0  0  0  0  0  0  0  0  0
   -1.8336    3.8767    0.0000 N   0  0  0  0  0  0  0  0  0  0  0  0
  1  2  2  0  0  0  0
  1  6  1  0  0  0  0
  2  3  1  0  0  0  0
  2 10  1  0  0  0  0
  3  4  2  0  0  0  0
  4  5  1  0  0  0  0
  4  7  1  0  0  0  0
  5  6  2  0  0  0  0
  5  9  1  0  0  0  0
  7  8  2  0  0  0  0
  8  9  1  0  0  0  0
  8 20  1  0  0  0  0
 10 11  1  0  0  0  0
 10 15  1  0  0  0  0
 11 12  1  0  0  0  0
 12 13  1  0  0  0  0
 13 14  1  0  0  0  0
 13 16  1  0  0  0  0
 14 15  1  0  0  0  0
 16 17  1  0  0  0  0
 17 18  1  0  0  0  0
 18 19  1  0  0  0  0
 19 23  1  0  0  0  0
 20 21  1  0  0  0  0
 20 22  2  0  0  0  0
 24 23  2  0  0  0  0
 25 23  1  0  0  0  0
 25 28  1  0  0  0  0
 26 24  1  0  0  0  0
 27 26  1  0  0  0  0
 27 25  2  0  0  0  0
 29 28  2  0  0  0  0
 29 32  1  0  0  0  0
 30 29  1  0  0  0  0
 31 27  1  0  0  0  0
 31 30  2  0  0  0  0
 33 32  3  0  0  0  0
M  END
>  <DATABASE_ID>
DB06684

>  <DATABASE_NAME>
drugbank

>  <SMILES>
NC(=O)C1=CC2=CC(=CC=C2O1)N1CCN(CCCCC2=CNC3=C2C=C(C=C3)C#N)CC1

>  <INCHI_IDENTIFIER>
InChI=1S/C26H27N5O2/c27-16-18-4-6-23-22(13-18)19(17-29-23)3-1-2-8-30-9-11-31(12-10-30)21-5-7-24-20(14-21)15-25(33-24)26(28)32/h4-7,13-15,17,29H,1-3,8-12H2,(H2,28,32)

>  <INCHI_KEY>
SGEGOXDYSFKCPT-UHFFFAOYSA-N

>  <FORMULA>
C26H27N5O2

>  <MOLECULAR_WEIGHT>
441.5249

>  <EXACT_MASS>
441.216475133

>  <JCHEM_ACCEPTOR_COUNT>
4

>  <JCHEM_ATOM_COUNT>
60

>  <JCHEM_AVERAGE_POLARIZABILITY>
50.029527234107036

>  <JCHEM_BIOAVAILABILITY>
1

>  <JCHEM_DONOR_COUNT>
2

>  <JCHEM_FORMAL_CHARGE>
0

>  <JCHEM_GHOSE_FILTER>
1

>  <JCHEM_IUPAC>
5-{4-[4-(5-cyano-1H-indol-3-yl)butyl]piperazin-1-yl}-1-benzofuran-2-carboxamide

>  <ALOGPS_LOGP>
4.21

>  <JCHEM_LOGP>
3.715303905999999

>  <ALOGPS_LOGS>
-3.56

>  <JCHEM_MDDR_LIKE_RULE>
1

>  <JCHEM_NUMBER_OF_RINGS>
5

>  <JCHEM_PHYSIOLOGICAL_CHARGE>
1

>  <JCHEM_PKA>
17.00689666854684

>  <JCHEM_PKA_STRONGEST_ACIDIC>
14.192647847280842

>  <JCHEM_PKA_STRONGEST_BASIC>
8.604416954750189

>  <JCHEM_POLAR_SURFACE_AREA>
102.28999999999999

>  <JCHEM_REFRACTIVITY>
129.71140000000003

>  <JCHEM_ROTATABLE_BOND_COUNT>
7

>  <JCHEM_RULE_OF_FIVE>
1

>  <ALOGPS_SOLUBILITY>
1.23e-01 g/l

>  <JCHEM_TRADITIONAL_IUPAC>
bosutinib monohydrate

>  <JCHEM_VEBER_RULE>
0

>  <DRUGBANK_ID>
DB06684

>  <DRUG_GROUPS>
approved

>  <GENERIC_NAME>
Vilazodone

>  <SYNONYMS>
Vilazodona; Vilazodone; Vilazodonum

>  <PRODUCTS>
Viibryd; Vilazodone; Vilazodone Hydrochloride; Vilazodone hydrochloride

>  <SALTS>
Vilazodone hydrochloride

$$$$

 OpenBabel05042401512D

 48 51  0  0  0  0  0  0  0  0999 V2000
   -2.4804    2.9827    0.0000 C   0  0  0  0  0  0  0  0  0  0  0  0
   -1.6554    2.9827    0.0000 C   0  0  0  0  0  0  0  0  0  0  0  0
   -1.3986    3.7669    0.0000 C   0  0  0  0  0  0  0  0  0  0  0  0
   -2.0678    4.2536    0.0000 N   0  0  0  0  0  0  0  0  0  0  0  0
   -2.7328    3.7669    0.0000 C   0  0  0  0  0  0  0  0  0  0  0  0
   -1.1712    2.3147    0.0000 N   0  0  0  0  0  0  0  0  0  0  0  0
   -0.3469    2.3161    0.0000 C   0  0  0  0  0  0  0  0  0  0  0  0
    0.0667    1.6023    0.0000 C   0  0  0  0  0  0  0  0  0  0  0  0
    0.0642    3.0313    0.0000 O   0  0  0  0  0  0  0  0  0  0  0  0
   -0.2658    0.8488    0.0000 N   0  0  0  0  0  0  0  0  0  0  0  0
    0.3481    0.2977    0.0000 C   0  0  0  0  0  0  0  0  0  0  0  0
    1.0621    0.7115    0.0000 C   0  0  0  0  0  0  0  0  0  0  0  0
    0.8890    1.5181    0.0000 C   0  0  0  0  0  0  0  0  0  0  0  0
    1.8163    0.3772    0.0000 N   0  0  0  0  0  0  0  0  0  0  0  0
    2.3987    0.9661    0.0000 C   0  0  0  0  0  0  0  0  0  0  0  0
    3.1968    0.7569    0.0000 C   0  0  0  0  0  0  0  0  0  0  0  0
    2.1810    1.7618    0.0000 O   0  0  0  0  0  0  0  0  0  0  0  0
    3.4967   -0.0089    0.0000 C   0  0  0  0  0  0  0  0  0  0  0  0
    4.3202    0.0387    0.0000 C   0  0  0  0  0  0  0  0  0  0  0  0
    4.5295    0.8368    0.0000 C   0  0  0  0  0  0  0  0  0  0  0  0
    3.8351    1.2822    0.0000 N   0  0  0  0  0  0  0  0  0  0  0  0
    4.8429   -0.5996    0.0000 N   0  0  0  0  0  0  0  0  0  0  0  0
    5.6654   -0.5963    0.0000 C   0  0  0  0  0  0  0  0  0  0  0  0
    6.0808   -1.3091    0.0000 C   0  0  0  0  0  0  0  0  0  0  0  0
    6.0752    0.1197    0.0000 O   0  0  0  0  0  0  0  0  0  0  0  0
    5.7498   -2.0614    0.0000 C   0  0  0  0  0  0  0  0  0  0  0  0
    6.3650   -2.6110    0.0000 C   0  0  0  0  0  0  0  0  0  0  0  0
    7.0780   -2.1957    0.0000 C   0  0  0  0  0  0  0  0  0  0  0  0
    6.9032   -1.3894    0.0000 N   0  0  0  0  0  0  0  0  0  0  0  0
    6.2821   -3.4318    0.0000 N   0  0  0  0  0  0  0  0  0  0  0  0
    6.9904   -3.8421    0.0000 C   0  0  0  0  0  0  0  0  0  0  0  0
    6.9892   -4.6671    0.0000 C   0  0  0  0  0  0  0  0  0  0  0  0
    7.7056   -3.4306    0.0000 O   0  0  0  0  0  0  0  0  0  0  0  0
    6.2743   -5.0786    0.0000 C   0  0  0  0  0  0  0  0  0  0  0  0
    7.6988   -5.0755    0.0000 Br  0  0  0  0  0  0  0  0  0  0  0  0
    7.4516   -0.7732    0.0000 C   0  0  0  0  0  0  0  0  0  0  0  0
    3.7863    2.1057    0.0000 C   0  0  0  0  0  0  0  0  0  0  0  0
   -1.0723    0.6752    0.0000 C   0  0  0  0  0  0  0  0  0  0  0  0
   -2.0690    5.0786    0.0000 C   0  0  0  0  0  0  0  0  0  0  0  0
   -3.5175    4.0215    0.0000 C   0  0  0  0  0  0  0  0  0  0  0  0
   -3.6894    4.8283    0.0000 O   0  0  0  0  0  0  0  0  0  0  0  0
   -4.1305    3.4691    0.0000 N   0  0  0  0  0  0  0  0  0  0  0  0
   -4.9344    3.6869    0.0000 C   0  0  0  0  0  0  0  0  0  0  0  0
   -5.5220    3.1036    0.0000 C   0  0  0  0  0  0  0  0  0  0  0  0
   -6.3219    3.3203    0.0000 N   0  0  0  0  0  0  0  0  0  0  0  0
   -6.9095    2.7369    0.0000 C   0  0  0  0  0  0  0  0  0  0  0  0
   -7.7056    2.9534    0.0000 N   0  0  0  0  0  0  0  0  0  0  0  0
   -6.6988    1.9393    0.0000 N   0  0  0  0  0  0  0  0  0  0  0  0
  1  2  1  0  0  0  0
  2  6  1  0  0  0  0
  2  3  2  0  0  0  0
  3  4  1  0  0  0  0
  4 39  1  0  0  0  0
  4  5  1  0  0  0  0
  5 40  1  0  0  0  0
  5  1  2  0  0  0  0
  6  7  1  0  0  0  0
  7  8  1  0  0  0  0
  7  9  2  0  0  0  0
  8 10  1  0  0  0  0
 10 11  1  0  0  0  0
 10 38  1  0  0  0  0
 11 12  2  0  0  0  0
 12 13  1  0  0  0  0
 12 14  1  0  0  0  0
 13  8  2  0  0  0  0
 14 15  1  0  0  0  0
 15 16  1  0  0  0  0
 15 17  2  0  0  0  0
 16 18  2  0  0  0  0
 18 19  1  0  0  0  0
 19 20  2  0  0  0  0
 19 22  1  0  0  0  0
 20 21  1  0  0  0  0
 21 37  1  0  0  0  0
 21 16  1  0  0  0  0
 22 23  1  0  0  0  0
 23 24  1  0  0  0  0
 23 25  2  0  0  0  0
 24 26  2  0  0  0  0
 26 27  1  0  0  0  0
 27 28  2  0  0  0  0
 27 30  1  0  0  0  0
 28 29  1  0  0  0  0
 29 24  1  0  0  0  0
 29 36  1  0  0  0  0
 30 31  1  0  0  0  0
 31 32  1  0  0  0  0
 31 33  2  0  0  0  0
 32 34  2  0  0  0  0
 32 35  1  0  0  0  0
 40 41  2  0  0  0  0
 40 42  1  0  0  0  0
 42 43  1  0  0  0  0
 43 44  1  0  0  0  0
 44 45  1  0  0  0  0
 45 46  2  0  0  0  0
 46 47  1  0  0  0  0
 46 48  1  0  0  0  0
M  END
>  <DATABASE_ID>
DB06598

>  <DATABASE_NAME>
drugbank

>  <SMILES>
CN1C=C(NC(=O)C2=CC(NC(=O)C3=CC(NC(=O)C4=CC(NC(=O)C(Br)=C)=CN4C)=CN3C)=CN2C)C=C1C(=O)NCCN=C(N)N

>  <INCHI_IDENTIFIER>
InChI=1S/C30H35BrN12O5/c1-16(31)25(44)36-17-9-22(41(3)12-17)27(46)38-19-11-24(43(5)14-19)29(48)39-20-10-23(42(4)15-20)28(47)37-18-8-21(40(2)13-18)26(45)34-6-7-35-30(32)33/h8-15H,1,6-7H2,2-5H3,(H,34,45)(H,36,44)(H,37,47)(H,38,46)(H,39,48)(H4,32,33,35)

>  <INCHI_KEY>
RXOVOXFAAGIKDQ-UHFFFAOYSA-N

>  <FORMULA>
C30H35BrN12O5

>  <MOLECULAR_WEIGHT>
723.593

>  <EXACT_MASS>
722.203675

>  <JCHEM_ACCEPTOR_COUNT>
8

>  <JCHEM_ATOM_COUNT>
83

>  <JCHEM_AVERAGE_NEUTRAL_MICROSPECIES_CHARGE>
0.9999648268275206

>  <JCHEM_AVERAGE_POLARIZABILITY>
71.76565621321132

>  <JCHEM_BIOAVAILABILITY>
0

>  <JCHEM_DONOR_COUNT>
7

>  <JCHEM_FORMAL_CHARGE>
0

>  <JCHEM_GHOSE_FILTER>
0

>  <JCHEM_IUPAC>
4-(4-{4-[4-(2-bromoprop-2-enamido)-1-methyl-1H-pyrrole-2-amido]-1-methyl-1H-pyrrole-2-amido}-1-methyl-1H-pyrrole-2-amido)-N-{2-[(diaminomethylidene)amino]ethyl}-1-methyl-1H-pyrrole-2-carboxamide

>  <ALOGPS_LOGP>
2.49

>  <JCHEM_LOGP>
0.4377663880435765

>  <ALOGPS_LOGS>
-3.89

>  <JCHEM_MDDR_LIKE_RULE>
1

>  <JCHEM_NEUTRAL_CHARGE>
1

>  <JCHEM_NUMBER_OF_RINGS>
4

>  <JCHEM_PHYSIOLOGICAL_CHARGE>
1

>  <JCHEM_PKA>
14.994352166520077

>  <JCHEM_PKA_STRONGEST_ACIDIC>
13.097882466211239

>  <JCHEM_PKA_STRONGEST_BASIC>
11.464092169464728

>  <JCHEM_POLAR_SURFACE_AREA>
229.62

>  <JCHEM_REFRACTIVITY>
190.25719999999993

>  <JCHEM_ROTATABLE_BOND_COUNT>
12

>  <JCHEM_RULE_OF_FIVE>
0

>  <ALOGPS_SOLUBILITY>
9.23e-02 g/l

>  <JCHEM_TRADITIONAL_IUPAC>
edaglitazone

>  <JCHEM_VEBER_RULE>
0

>  <DRUGBANK_ID>
DB06598

>  <DRUG_GROUPS>
investigational

>  <GENERIC_NAME>
Brostallicin

>  <SYNONYMS>
Brostalicina; Brostallicin; Brostallicine; Brostallicinum

>  <SALTS>
Brostallicin hydrochloride

$$$$

 OpenBabel05042401512D

 38 41  0  0  1  0  0  0  0  0999 V2000
    1.0015   -8.1306    0.0000 C   0  0  0  0  0  0  0  0  0  0  0  0
    1.6831   -7.6659    0.0000 C   0  0  2  0  0  0  0  0  0  0  0  0
    1.5601   -6.8501    0.0000 C   0  0  0  0  0  0  0  0  0  0  0  0
    2.1213   -6.2454    0.0000 C   0  0  0  0  0  0  0  0  0  0  0  0
    2.9440   -6.3070    0.0000 C   0  0  1  0  0  0  0  0  0  0  0  0
    3.4087   -6.9887    0.0000 C   0  0  0  0  0  0  0  0  0  0  0  0
    4.2245   -6.8657    0.0000 O   0  0  0  0  0  0  0  0  0  0  0  0
    3.1655   -7.7770    0.0000 C   0  0  0  0  0  0  0  0  0  0  0  0
    2.3976   -8.0784    0.0000 N   0  0  0  0  0  0  0  0  0  0  0  0
    2.3359   -8.9011    0.0000 S   0  0  0  0  0  0  0  0  0  0  0  0
    3.1586   -8.9628    0.0000 O   0  0  0  0  0  0  0  0  0  0  0  0
    1.5132   -8.8394    0.0000 O   0  0  0  0  0  0  0  0  0  0  0  0
    2.2743   -9.7238    0.0000 C   0  0  0  0  0  0  0  0  0  0  0  0
    2.9559  -10.1885    0.0000 C   0  0  0  0  0  0  0  0  0  0  0  0
    2.8943  -11.0112    0.0000 C   0  0  0  0  0  0  0  0  0  0  0  0
    2.1510  -11.3692    0.0000 C   0  0  0  0  0  0  0  0  0  0  0  0
    1.4693  -10.9044    0.0000 C   0  0  0  0  0  0  0  0  0  0  0  0
    1.5310  -10.0817    0.0000 N   0  0  0  0  0  0  0  0  0  0  0  0
    3.3565   -5.5925    0.0000 N   0  0  0  0  0  0  0  0  0  0  0  0
    4.1815   -5.5925    0.0000 C   0  0  0  0  0  0  0  0  0  0  0  0
    4.5940   -6.3070    0.0000 O   0  0  0  0  0  0  0  0  0  0  0  0
    4.5940   -4.8781    0.0000 C   0  0  2  0  0  0  0  0  0  0  0  0
    4.1815   -4.1636    0.0000 C   0  0  0  0  0  0  0  0  0  0  0  0
    3.3565   -4.1636    0.0000 C   0  0  0  0  0  0  0  0  0  0  0  0
    2.9440   -4.8781    0.0000 C   0  0  0  0  0  0  0  0  0  0  0  0
    2.9440   -3.4491    0.0000 C   0  0  0  0  0  0  0  0  0  0  0  0
    5.4190   -4.8781    0.0000 N   0  0  0  0  0  0  0  0  0  0  0  0
    5.8315   -4.1636    0.0000 C   0  0  0  0  0  0  0  0  0  0  0  0
    5.4190   -3.4491    0.0000 O   0  0  0  0  0  0  0  0  0  0  0  0
    6.6565   -4.1636    0.0000 C   0  0  0  0  0  0  0  0  0  0  0  0
    7.1414   -3.4962    0.0000 C   0  0  0  0  0  0  0  0  0  0  0  0
    7.9260   -3.7511    0.0000 C   0  0  0  0  0  0  0  0  0  0  0  0
    8.6405   -3.3386    0.0000 C   0  0  0  0  0  0  0  0  0  0  0  0
    9.3550   -3.7511    0.0000 C   0  0  0  0  0  0  0  0  0  0  0  0
    9.3550   -4.5761    0.0000 C   0  0  0  0  0  0  0  0  0  0  0  0
    8.6405   -4.9886    0.0000 C   0  0  0  0  0  0  0  0  0  0  0  0
    7.9260   -4.5761    0.0000 C   0  0  0  0  0  0  0  0  0  0  0  0
    7.1414   -4.8310    0.0000 O   0  0  0  0  0  0  0  0  0  0  0  0
  2  1  1  6  0  0  0
  2  3  1  0  0  0  0
  2  9  1  0  0  0  0
  3  4  1  0  0  0  0
  4  5  1  0  0  0  0
  5  6  1  0  0  0  0
  5 19  1  6  0  0  0
  6  7  2  0  0  0  0
  6  8  1  0  0  0  0
  8  9  1  0  0  0  0
  9 10  1  0  0  0  0
 10 11  2  0  0  0  0
 10 12  2  0  0  0  0
 10 13  1  0  0  0  0
 13 14  2  0  0  0  0
 13 18  1  0  0  0  0
 14 15  1  0  0  0  0
 15 16  2  0  0  0  0
 16 17  1  0  0  0  0
 17 18  2  0  0  0  0
 19 20  1  0  0  0  0
 20 21  2  0  0  0  0
 22 20  1  6  0  0  0
 22 23  1  0  0  0  0
 22 27  1  0  0  0  0
 23 24  1  0  0  0  0
 24 25  1  0  0  0  0
 24 26  1  0  0  0  0
 27 28  1  0  0  0  0
 28 29  2  0  0  0  0
 28 30  1  0  0  0  0
 30 31  2  0  0  0  0
 30 38  1  0  0  0  0
 31 32  1  0  0  0  0
 32 33  2  0  0  0  0
 32 37  1  0  0  0  0
 33 34  1  0  0  0  0
 34 35  2  0  0  0  0
 35 36  1  0  0  0  0
 36 37  2  0  0  0  0
 37 38  1  0  0  0  0
M  END
>  <DATABASE_ID>
DB06367

>  <DATABASE_NAME>
drugbank

>  <SMILES>
CC(C)C[C@H](NC(=O)C1=CC2=CC=CC=C2O1)C(=O)N[C@H]1CC[C@@H](C)N(CC1=O)S(=O)(=O)C1=CC=CC=N1

>  <INCHI_IDENTIFIER>
InChI=1S/C27H32N4O6S/c1-17(2)14-21(30-27(34)24-15-19-8-4-5-9-23(19)37-24)26(33)29-20-12-11-18(3)31(16-22(20)32)38(35,36)25-10-6-7-13-28-25/h4-10,13,15,17-18,20-21H,11-12,14,16H2,1-3H3,(H,29,33)(H,30,34)/t18-,20+,21+/m1/s1

>  <INCHI_KEY>
BWYBBMQLUKXECQ-GIVPXCGWSA-N

>  <FORMULA>
C27H32N4O6S

>  <MOLECULAR_WEIGHT>
540.64

>  <EXACT_MASS>
540.20425594

>  <JCHEM_ACCEPTOR_COUNT>
6

>  <JCHEM_ATOM_COUNT>
70

>  <JCHEM_AVERAGE_POLARIZABILITY>
54.77482576223292

>  <JCHEM_BIOAVAILABILITY>
1

>  <JCHEM_DONOR_COUNT>
2

>  <JCHEM_FORMAL_CHARGE>
0

>  <JCHEM_GHOSE_FILTER>
0

>  <JCHEM_IUPAC>
(2S)-2-[(1-benzofuran-2-yl)formamido]-4-methyl-N-[(4S,7R)-7-methyl-3-oxo-1-(pyridine-2-sulfonyl)azepan-4-yl]pentanamide

>  <ALOGPS_LOGP>
2.37

>  <JCHEM_LOGP>
2.790958312

>  <ALOGPS_LOGS>
-4.25

>  <JCHEM_MDDR_LIKE_RULE>
1

>  <JCHEM_NUMBER_OF_RINGS>
4

>  <JCHEM_PHYSIOLOGICAL_CHARGE>
0

>  <JCHEM_PKA>
14.682275530910218

>  <JCHEM_PKA_STRONGEST_ACIDIC>
12.070142808571646

>  <JCHEM_PKA_STRONGEST_BASIC>
-2.0037990748425143

>  <JCHEM_POLAR_SURFACE_AREA>
138.68

>  <JCHEM_REFRACTIVITY>
140.67029999999997

>  <JCHEM_ROTATABLE_BOND_COUNT>
7

>  <JCHEM_RULE_OF_FIVE>
0

>  <ALOGPS_SOLUBILITY>
3.02e-02 g/l

>  <JCHEM_TRADITIONAL_IUPAC>
relacatib

>  <JCHEM_VEBER_RULE>
0

>  <DRUGBANK_ID>
DB06367

>  <DRUG_GROUPS>
investigational

>  <GENERIC_NAME>
Relacatib

>  <SYNONYMS>
Relacatib

$$$$

 OpenBabel05042401512D

 41 40  0  0  1  0  0  0  0  0999 V2000
    0.6161   -0.5205    0.0000 N   0  0  0  0  0  0  0  0  0  0  0  0
    0.3025   -1.2846    0.0000 C   0  0  2  0  0  0  0  0  0  0  0  0
   -0.5150   -1.3945    0.0000 C   0  0  0  0  0  0  0  0  0  0  0  0
   -0.8289   -2.1540    0.0000 O   0  0  0  0  0  0  0  0  0  0  0  0
   -0.6164   -2.9510    0.0000 C   0  0  0  0  0  0  0  0  0  0  0  0
   -1.0311   -3.6682    0.0000 C   0  0  0  0  0  0  0  0  0  0  0  0
   -1.2322   -0.9797    0.0000 O   0  0  0  0  0  0  0  0  0  0  0  0
   -2.0248   -1.1922    0.0000 C   0  0  0  0  0  0  0  0  0  0  0  0
   -2.7419   -0.7820    0.0000 C   0  0  0  0  0  0  0  0  0  0  0  0
    0.8063   -1.9388    0.0000 C   0  0  0  0  0  0  0  0  0  0  0  0
    1.6239   -1.8290    0.0000 C   0  0  0  0  0  0  0  0  0  0  0  0
    2.1277   -2.4831    0.0000 C   0  0  0  0  0  0  0  0  0  0  0  0
    2.9453   -2.3733    0.0000 N   0  0  0  0  0  0  0  0  0  0  0  0
    3.4493   -3.0275    0.0000 C   0  0  0  0  0  0  0  0  0  0  0  0
    4.2623   -2.9177    0.0000 N   0  0  0  0  0  0  0  0  0  0  0  0
    3.1308   -3.7869    0.0000 N   0  0  0  0  0  0  0  0  0  0  0  0
    1.4337   -0.4108    0.0000 C   0  0  0  0  0  0  0  0  0  0  0  0
    1.7474    0.3486    0.0000 C   0  0  1  0  0  0  0  0  0  0  0  0
    1.2481    1.0074    0.0000 N   0  0  0  0  0  0  0  0  0  0  0  0
    0.4305    0.8975    0.0000 C   0  0  0  0  0  0  0  0  0  0  0  0
   -0.0732    1.5470    0.0000 O   0  0  0  0  0  0  0  0  0  0  0  0
    0.1123    0.1675    0.0000 C   0  0  0  0  0  0  0  0  0  0  0  0
   -0.7112    0.1675    0.0000 C   0  0  0  0  0  0  0  0  0  0  0  0
   -1.0945    0.8981    0.0000 C   0  0  0  0  0  0  0  0  0  0  0  0
   -0.6496    1.5948    0.0000 O   0  0  0  0  0  0  0  0  0  0  0  0
   -1.9182    0.8981    0.0000 N   0  0  0  0  0  0  0  0  0  0  0  0
   -2.3014    1.6627    0.0000 C   0  0  2  0  0  0  0  0  0  0  0  0
   -1.8564    2.3595    0.0000 C   0  0  0  0  0  0  0  0  0  0  0  0
   -2.2396    3.0947    0.0000 C   0  0  0  0  0  0  0  0  0  0  0  0
   -1.7946    3.7869    0.0000 O   0  5  0  0  0  0  0  0  0  0  0  0
   -3.0633    3.0947    0.0000 O   0  0  0  0  0  0  0  0  0  0  0  0
   -3.1250    1.6627    0.0000 C   0  0  0  0  0  0  0  0  0  0  0  0
   -3.5655    1.0045    0.0000 N   0  3  0  0  0  0  0  0  0  0  0  0
   -4.2623    1.4448    0.0000 C   0  0  0  0  0  0  0  0  0  0  0  0
   -2.8688    0.5595    0.0000 C   0  0  0  0  0  0  0  0  0  0  0  0
   -4.0061    0.3077    0.0000 C   0  0  0  0  0  0  0  0  0  0  0  0
    2.5650    0.4583    0.0000 C   0  0  0  0  0  0  0  0  0  0  0  0
    2.8833    1.2225    0.0000 C   0  0  0  0  0  0  0  0  0  0  0  0
    3.7009    1.3322    0.0000 C   0  0  0  0  0  0  0  0  0  0  0  0
    2.3795    1.8765    0.0000 C   0  0  0  0  0  0  0  0  0  0  0  0
    1.9377   -1.0650    0.0000 O   0  0  0  0  0  0  0  0  0  0  0  0
  1 17  1  0  0  0  0
  2  1  1  1  0  0  0
  2  3  1  0  0  0  0
  2 10  1  0  0  0  0
  3  4  1  0  0  0  0
  3  7  1  0  0  0  0
  4  5  1  0  0  0  0
  5  6  1  0  0  0  0
  7  8  1  0  0  0  0
  8  9  1  0  0  0  0
 11 10  1  0  0  0  0
 11 12  1  0  0  0  0
 12 13  1  0  0  0  0
 13 14  1  0  0  0  0
 14 15  2  0  0  0  0
 14 16  1  0  0  0  0
 18 17  1  1  0  0  0
 18 19  1  0  0  0  0
 18 37  1  0  0  0  0
 20 19  1  0  0  0  0
 20 21  2  0  0  0  0
 22 20  1  0  0  0  0
 23 22  1  0  0  0  0
 24 23  1  0  0  0  0
 24 25  2  0  0  0  0
 26 24  1  0  0  0  0
 27 26  1  1  0  0  0
 27 28  1  0  0  0  0
 28 29  1  0  0  0  0
 29 30  1  0  0  0  0
 29 31  2  0  0  0  0
 32 27  1  0  0  0  0
 33 32  1  0  0  0  0
 33 34  1  0  0  0  0
 33 35  1  0  0  0  0
 36 33  1  0  0  0  0
 37 38  1  0  0  0  0
 38 40  1  0  0  0  0
 39 38  1  0  0  0  0
 41 17  2  0  0  0  0
M  CHG  2  30  -1  33   1
M  END
>  <DATABASE_ID>
DB06124

>  <DATABASE_NAME>
drugbank

>  <SMILES>
CCOC(OCC)[C@H](CCCNC(N)=N)NC(=O)[C@H](CC(C)C)NC(=O)CCC(=O)N[C@H](CC([O-])=O)C[N+](C)(C)C

>  <INCHI_IDENTIFIER>
InChI=1S/C27H53N7O7/c1-8-40-26(41-9-2)20(11-10-14-30-27(28)29)33-25(39)21(15-18(3)4)32-23(36)13-12-22(35)31-19(16-24(37)38)17-34(5,6)7/h18-21,26H,8-17H2,1-7H3,(H7-,28,29,30,31,32,33,35,36,37,38,39)/t19-,20+,21+/m1/s1

>  <INCHI_KEY>
JOITUBWXBFATOR-HKBOAZHASA-N

>  <FORMULA>
C27H53N7O7

>  <MOLECULAR_WEIGHT>
587.763

>  <EXACT_MASS>
587.400647075

>  <JCHEM_ACCEPTOR_COUNT>
10

>  <JCHEM_ATOM_COUNT>
94

>  <JCHEM_AVERAGE_NEUTRAL_MICROSPECIES_CHARGE>
1.001229074653566

>  <JCHEM_AVERAGE_POLARIZABILITY>
65.49361498271813

>  <JCHEM_BIOAVAILABILITY>
0

>  <JCHEM_DONOR_COUNT>
6

>  <JCHEM_FORMAL_CHARGE>
0

>  <JCHEM_GHOSE_FILTER>
0

>  <JCHEM_IUPAC>
(3R)-3-(3-{[(1S)-1-{[(2S)-5-carbamimidamido-1,1-diethoxypentan-2-yl]carbamoyl}-3-methylbutyl]carbamoyl}propanamido)-4-(trimethylazaniumyl)butanoate

>  <ALOGPS_LOGP>
-0.97

>  <JCHEM_LOGP>
-6.397069057648168

>  <ALOGPS_LOGS>
-4.71

>  <JCHEM_MDDR_LIKE_RULE>
0

>  <JCHEM_NEUTRAL_CHARGE>
1

>  <JCHEM_NUMBER_OF_RINGS>
0

>  <JCHEM_PHYSIOLOGICAL_CHARGE>
1

>  <JCHEM_PKA>
12.581409684192081

>  <JCHEM_PKA_STRONGEST_ACIDIC>
3.706595575233008

>  <JCHEM_PKA_STRONGEST_BASIC>
11.853288829179519

>  <JCHEM_POLAR_SURFACE_AREA>
207.79

>  <JCHEM_REFRACTIVITY>
187.3362

>  <JCHEM_ROTATABLE_BOND_COUNT>
22

>  <JCHEM_RULE_OF_FIVE>
0

>  <ALOGPS_SOLUBILITY>
1.24e-02 g/l

>  <JCHEM_TRADITIONAL_IUPAC>
motesanib

>  <JCHEM_VEBER_RULE>
0

>  <DRUGBANK_ID>
DB06124

>  <DRUG_GROUPS>
investigational

>  <GENERIC_NAME>
L-aminocarnityl-succinyl-leucyl-argininal-diethylacetal

>  <INTERNATIONAL_BRANDS>
Myodur

$$$$

 OpenBabel05042401512D

 29 33  0  0  1  0  0  0  0  0999 V2000
    3.4911   -2.0223    0.0000 C   0  0  0  0  0  0  0  0  0  0  0  0
    2.7743   -2.4307    0.0000 C   0  0  0  0  0  0  0  0  0  0  0  0
    2.0622   -2.0143    0.0000 C   0  0  0  0  0  0  0  0  0  0  0  0
    2.0668   -1.1892    0.0000 C   0  0  0  0  0  0  0  0  0  0  0  0
    2.7836   -0.7808    0.0000 C   0  0  0  0  0  0  0  0  0  0  0  0
    3.4957   -1.1974    0.0000 N   0  0  0  0  0  0  0  0  0  0  0  0
    1.3547   -0.7727    0.0000 C   0  0  0  0  0  0  0  0  0  0  0  0
    0.6379   -1.1813    0.0000 C   0  0  2  0  0  0  0  0  0  0  0  0
    0.1837   -1.8699    0.0000 N   0  0  3  0  0  0  0  0  0  0  0  0
   -0.8226   -1.5774    0.0000 C   0  0  0  0  0  0  0  0  0  0  0  0
   -1.4581   -1.7294    0.0000 C   0  0  0  0  0  0  0  0  0  0  0  0
   -0.5775   -1.8998    0.0000 C   0  0  3  0  0  0  0  0  0  0  0  0
   -0.1392   -1.2188    0.0000 C   0  0  1  0  0  0  0  0  0  0  0  0
    0.4074   -0.3891    0.0000 H   0  0  0  0  0  0  0  0  0  0  0  0
   -0.5517   -0.5043    0.0000 N   0  0  0  0  0  0  0  0  0  0  0  0
   -0.9640   -1.1989    0.0000 H   0  0  0  0  0  0  0  0  0  0  0  0
    0.4139   -2.7533    0.0000 C   0  0  0  0  0  0  0  0  0  0  0  0
   -0.3490   -2.7471    0.0000 C   0  0  0  0  0  0  0  0  0  0  0  0
   -1.3767   -0.5043    0.0000 C   0  0  0  0  0  0  0  0  0  0  0  0
   -1.7892   -1.2188    0.0000 O   0  0  0  0  0  0  0  0  0  0  0  0
   -1.7892    0.2101    0.0000 C   0  0  0  0  0  0  0  0  0  0  0  0
   -1.4536    0.9637    0.0000 C   0  0  0  0  0  0  0  0  0  0  0  0
   -2.6097    0.2963    0.0000 O   0  0  0  0  0  0  0  0  0  0  0  0
   -2.7812    1.1033    0.0000 C   0  0  0  0  0  0  0  0  0  0  0  0
   -2.0667    1.5158    0.0000 C   0  0  0  0  0  0  0  0  0  0  0  0
   -3.4957    1.5158    0.0000 C   0  0  0  0  0  0  0  0  0  0  0  0
   -3.4957    2.3408    0.0000 C   0  0  0  0  0  0  0  0  0  0  0  0
   -2.7812    2.7533    0.0000 C   0  0  0  0  0  0  0  0  0  0  0  0
   -2.0667    2.3408    0.0000 C   0  0  0  0  0  0  0  0  0  0  0  0
  1  2  2  0  0  0  0
  1  6  1  0  0  0  0
  2  3  1  0  0  0  0
  3  4  2  0  0  0  0
  4  5  1  0  0  0  0
  4  7  1  0  0  0  0
  5  6  2  0  0  0  0
  8  7  1  0  0  0  0
  8 14  1  1  0  0  0
  9  8  1  0  0  0  0
  9 10  1  0  0  0  0
  9 17  1  0  0  0  0
 10 11  1  0  0  0  0
 11 12  1  0  0  0  0
 12 13  1  0  0  0  0
 13  8  1  0  0  0  0
 13 15  1  0  0  0  0
 13 16  1  6  0  0  0
 15 19  1  0  0  0  0
 17 18  1  0  0  0  0
 18 12  1  0  0  0  0
 19 20  2  0  0  0  0
 19 21  1  0  0  0  0
 21 23  1  0  0  0  0
 22 21  2  0  0  0  0
 22 25  1  0  0  0  0
 23 24  1  0  0  0  0
 24 26  1  0  0  0  0
 25 29  1  0  0  0  0
 25 24  2  0  0  0  0
 26 27  2  0  0  0  0
 27 28  1  0  0  0  0
 28 29  2  0  0  0  0
M  END
>  <DATABASE_ID>
DB06090

>  <DATABASE_NAME>
drugbank

>  <SMILES>
[H][C@@]1(CC2=CC=CN=C2)N2CCC(CC2)[C@@]1([H])NC(=O)C1=CC2=C(O1)C=CC=C2

>  <INCHI_IDENTIFIER>
InChI=1S/C22H23N3O2/c26-22(20-13-17-5-1-2-6-19(17)27-20)24-21-16-7-10-25(11-8-16)18(21)12-15-4-3-9-23-14-15/h1-6,9,13-14,16,18,21H,7-8,10-12H2,(H,24,26)/t18-,21+/m0/s1

>  <INCHI_KEY>
OXKRFEWMSWPKKV-GHTZIAJQSA-N

>  <FORMULA>
C22H23N3O2

>  <MOLECULAR_WEIGHT>
361.445

>  <EXACT_MASS>
361.179026993

>  <JCHEM_ACCEPTOR_COUNT>
3

>  <JCHEM_ATOM_COUNT>
50

>  <JCHEM_AVERAGE_POLARIZABILITY>
40.04855093953049

>  <JCHEM_BIOAVAILABILITY>
1

>  <JCHEM_DONOR_COUNT>
1

>  <JCHEM_FORMAL_CHARGE>
0

>  <JCHEM_GHOSE_FILTER>
1

>  <JCHEM_IUPAC>
N-[(2S,3R)-2-[(pyridin-3-yl)methyl]-1-azabicyclo[2.2.2]octan-3-yl]-1-benzofuran-2-carboxamide

>  <ALOGPS_LOGP>
2.74

>  <JCHEM_LOGP>
2.3575646679999998

>  <ALOGPS_LOGS>
-3.81

>  <JCHEM_MDDR_LIKE_RULE>
0

>  <JCHEM_NUMBER_OF_RINGS>
5

>  <JCHEM_PHYSIOLOGICAL_CHARGE>
1

>  <JCHEM_PKA_STRONGEST_ACIDIC>
14.570994659260716

>  <JCHEM_PKA_STRONGEST_BASIC>
7.436441113162054

>  <JCHEM_POLAR_SURFACE_AREA>
58.370000000000005

>  <JCHEM_REFRACTIVITY>
103.60290000000002

>  <JCHEM_ROTATABLE_BOND_COUNT>
4

>  <JCHEM_RULE_OF_FIVE>
1

>  <ALOGPS_SOLUBILITY>
5.59e-02 g/l

>  <JCHEM_TRADITIONAL_IUPAC>
N-[(2S,3R)-2-(pyridin-3-ylmethyl)-1-azabicyclo[2.2.2]octan-3-yl]-1-benzofuran-2-carboxamide

>  <JCHEM_VEBER_RULE>
0

>  <DRUGBANK_ID>
DB06090

>  <DRUG_GROUPS>
investigational

>  <GENERIC_NAME>
Bradanicline

>  <SYNONYMS>
Bradanicline

>  <SALTS>
Bradanicline hydrochloride; Bradanicline tosylate

$$$$

 OpenBabel05042401512D

 33 32  0  0  0  0  0  0  0  0999 V2000
    2.0446    0.0140    0.0000 C   0  0  0  0  0  0  0  0  0  0  0  0
    2.0446   -0.8109    0.0000 C   0  0  0  0  0  0  0  0  0  0  0  0
    0.9177    1.1410    0.0000 C   0  0  0  0  0  0  0  0  0  0  0  0
    0.0927    1.1410    0.0000 C   0  0  0  0  0  0  0  0  0  0  0  0
    0.9177   -1.9379    0.0000 C   0  0  0  0  0  0  0  0  0  0  0  0
    0.0927   -1.9379    0.0000 C   0  0  0  0  0  0  0  0  0  0  0  0
   -1.0342    0.0140    0.0000 C   0  0  0  0  0  0  0  0  0  0  0  0
   -1.0342   -0.8109    0.0000 C   0  0  0  0  0  0  0  0  0  0  0  0
    1.9135    1.0099    0.0000 C   0  0  0  0  0  0  0  0  0  0  0  0
    1.9135   -1.8068    0.0000 C   0  0  0  0  0  0  0  0  0  0  0  0
   -0.9031    1.0099    0.0000 C   0  0  0  0  0  0  0  0  0  0  0  0
   -0.9031   -1.8068    0.0000 C   0  0  0  0  0  0  0  0  0  0  0  0
    1.3302    0.4265    0.0000 N   0  0  0  0  0  0  0  0  0  0  0  0
    1.3302   -1.2234    0.0000 N   0  0  0  0  0  0  0  0  0  0  0  0
   -0.3197    0.4265    0.0000 N   0  0  0  0  0  0  0  0  0  0  0  0
   -0.3197   -1.2234    0.0000 N   0  0  0  0  0  0  0  0  0  0  0  0
    1.4865    2.6036    0.0000 O   0  5  0  0  0  0  0  0  0  0  0  0
    2.4969    2.0203    0.0000 O   0  5  0  0  0  0  0  0  0  0  0  0
    0.9031    1.5932    0.0000 O   0  0  0  0  0  0  0  0  0  0  0  0
    0.9031   -2.3901    0.0000 O   0  0  0  0  0  0  0  0  0  0  0  0
    2.4969   -2.8172    0.0000 O   0  0  0  0  0  0  0  0  0  0  0  0
    1.4865   -3.4005    0.0000 O   0  0  0  0  0  0  0  0  0  0  0  0
    0.1072    1.5932    0.0000 O   0  0  0  0  0  0  0  0  0  0  0  0
   -1.4865    2.0203    0.0000 O   0  0  0  0  0  0  0  0  0  0  0  0
   -0.4761    2.6036    0.0000 O   0  0  0  0  0  0  0  0  0  0  0  0
   -2.4969   -1.3797    0.0000 O   0  0  0  0  0  0  0  0  0  0  0  0
   -1.9135   -2.3901    0.0000 O   0  0  0  0  0  0  0  0  0  0  0  0
   -1.4865   -0.7963    0.0000 O   0  0  0  0  0  0  0  0  0  0  0  0
    1.7000    1.8068    0.0000 P   0  0  0  0  0  0  0  0  0  0  0  0
    1.7000   -2.6036    0.0000 P   0  0  0  0  0  0  0  0  0  0  0  0
   -0.6896    1.8068    0.0000 P   0  0  0  0  0  0  0  0  0  0  0  0
   -1.7000   -1.5932    0.0000 P   0  0  0  0  0  0  0  0  0  0  0  0
    1.2729    3.4005    0.0000 Ho  0  2  0  0  0 15  0  0  0  0  0  0
  2  1  1  0  0  0  0
  4  3  1  0  0  0  0
  6  5  1  0  0  0  0
  8  7  1  0  0  0  0
 13  1  1  0  0  0  0
 13  3  1  0  0  0  0
 13  9  1  0  0  0  0
 14  2  1  0  0  0  0
 14  5  1  0  0  0  0
 14 10  1  0  0  0  0
 15  4  1  0  0  0  0
 15  7  1  0  0  0  0
 15 11  1  0  0  0  0
 16  6  1  0  0  0  0
 16  8  1  0  0  0  0
 16 12  1  0  0  0  0
 29  9  1  0  0  0  0
 29 17  1  0  0  0  0
 29 18  1  0  0  0  0
 29 19  2  0  0  0  0
 30 10  1  0  0  0  0
 30 20  1  0  0  0  0
 30 21  1  0  0  0  0
 30 22  2  0  0  0  0
 31 11  1  0  0  0  0
 31 23  1  0  0  0  0
 31 24  1  0  0  0  0
 31 25  2  0  0  0  0
 32 12  1  0  0  0  0
 32 26  1  0  0  0  0
 32 27  1  0  0  0  0
 32 28  2  0  0  0  0
M  ISO  1  33 166
M  CHG  3  17  -1  18  -1  33   2
M  END
>  <DATABASE_ID>
DB05380

>  <DATABASE_NAME>
drugbank

>  <SMILES>
[166Ho++].OP(O)(=O)CN1CCN(CP(O)(O)=O)CCN(CP([O-])([O-])=O)CCN(CP(O)(O)=O)CC1

>  <INCHI_IDENTIFIER>
InChI=1S/C12H32N4O12P4.Ho/c17-29(18,19)9-13-1-2-14(10-30(20,21)22)5-6-16(12-32(26,27)28)8-7-15(4-3-13)11-31(23,24)25;/h1-12H2,(H2,17,18,19)(H2,20,21,22)(H2,23,24,25)(H2,26,27,28);/q;+2/p-2/i;1+1

>  <INCHI_KEY>
UOWMQDYQGKHTKV-IEOVAKBOSA-L

>  <FORMULA>
C12H30HoN4O12P4

>  <MOLECULAR_WEIGHT>
712.215

>  <EXACT_MASS>
712.013351681

>  <JCHEM_ACCEPTOR_COUNT>
16

>  <JCHEM_ATOM_COUNT>
63

>  <JCHEM_AVERAGE_POLARIZABILITY>
45.168617936950795

>  <JCHEM_BIOAVAILABILITY>
0

>  <JCHEM_DONOR_COUNT>
6

>  <JCHEM_FORMAL_CHARGE>
0

>  <JCHEM_GHOSE_FILTER>
0

>  <JCHEM_IUPAC>
lambda2-(166Ho)holmium(2+) ion {[4,7,10-tris(phosphonomethyl)-1,4,7,10-tetraazacyclododecan-1-yl]methyl}phosphonate

>  <ALOGPS_LOGP>
-0.64

>  <JCHEM_LOGP>
-4.402771464000001

>  <ALOGPS_LOGS>
-1.38

>  <JCHEM_MDDR_LIKE_RULE>
0

>  <JCHEM_NUMBER_OF_RINGS>
1

>  <JCHEM_PHYSIOLOGICAL_CHARGE>
-4

>  <JCHEM_PKA>
1.381782493275649

>  <JCHEM_PKA_STRONGEST_ACIDIC>
0.9558138477435572

>  <JCHEM_POLAR_SURFACE_AREA>
248.73999999999995

>  <JCHEM_REFRACTIVITY>
112.13979999999992

>  <JCHEM_ROTATABLE_BOND_COUNT>
8

>  <JCHEM_RULE_OF_FIVE>
0

>  <ALOGPS_SOLUBILITY>
3.21e+01 g/l

>  <JCHEM_TRADITIONAL_IUPAC>
lambda2-(166Ho)holmium(2+) ion [4,7,10-tris(phosphonomethyl)-1,4,7,10-tetraazacyclododecan-1-yl]methylphosphonate

>  <JCHEM_VEBER_RULE>
0

>  <DRUGBANK_ID>
DB05380

>  <DRUG_GROUPS>
investigational

>  <GENERIC_NAME>
DOTMP HO-166

>  <SYNONYMS>
166Ho-DOTMP; Chelating agent delivering Holmium-166; Holmium Ho-166 DOTMP; Holmium-166 DOTMP

$$$$

 OpenBabel05042401512D

 49 51  0  0  1  0  0  0  0  0999 V2000
   -2.1270   -0.2029    0.0000 C   0  0  2  0  0  0  0  0  0  0  0  0
   -2.1270   -1.0421    0.0000 C   0  0  0  0  0  0  0  0  0  0  0  0
   -2.8368   -1.4628    0.0000 C   0  0  0  0  0  0  0  0  0  0  0  0
   -2.8368   -2.3019    0.0000 C   0  0  0  0  0  0  0  0  0  0  0  0
   -3.5485   -2.7205    0.0000 C   0  0  0  0  0  0  0  0  0  0  0  0
   -4.2561   -2.3019    0.0000 C   0  0  0  0  0  0  0  0  0  0  0  0
   -4.2561   -1.4628    0.0000 C   0  0  0  0  0  0  0  0  0  0  0  0
   -3.5485   -1.0421    0.0000 C   0  0  0  0  0  0  0  0  0  0  0  0
   -1.4173    0.2154    0.0000 C   0  0  0  0  0  0  0  0  0  0  0  0
   -0.7076   -0.2029    0.0000 N   0  0  0  0  0  0  0  0  0  0  0  0
    0.0020    0.2154    0.0000 C   0  0  1  0  0  0  0  0  0  0  0  0
    0.7117   -0.2029    0.0000 C   0  0  0  0  0  0  0  0  0  0  0  0
    1.4214    0.2154    0.0000 N   0  0  0  0  0  0  0  0  0  0  0  0
    2.1311   -0.2029    0.0000 C   0  0  1  0  0  0  0  0  0  0  0  0
    2.8408    0.2154    0.0000 C   0  0  0  0  0  0  0  0  0  0  0  0
    3.5505   -0.2029    0.0000 N   0  0  0  0  0  0  0  0  0  0  0  0
    4.2602    0.2154    0.0000 C   0  0  0  0  0  0  0  0  0  0  0  0
    4.9720   -0.2029    0.0000 C   0  0  0  0  0  0  0  0  0  0  0  0
    4.9720   -1.0421    0.0000 C   0  0  0  0  0  0  0  0  0  0  0  0
    5.6817   -1.4628    0.0000 C   0  0  0  0  0  0  0  0  0  0  0  0
    6.3913   -1.0421    0.0000 N   0  0  0  0  0  0  0  0  0  0  0  0
    6.3913   -0.2029    0.0000 C   0  0  0  0  0  0  0  0  0  0  0  0
    5.6817    0.2154    0.0000 C   0  0  0  0  0  0  0  0  0  0  0  0
    2.8408    1.0546    0.0000 O   0  0  0  0  0  0  0  0  0  0  0  0
    2.1311   -1.7272    0.0000 C   0  0  0  0  0  0  0  0  0  0  0  0
    1.4214   -2.1458    0.0000 C   0  0  0  0  0  0  0  0  0  0  0  0
    0.7178   -1.7126    0.0000 C   0  0  0  0  0  0  0  0  0  0  0  0
    0.0080   -2.1333    0.0000 N   0  0  0  0  0  0  0  0  0  0  0  0
   -0.6933   -1.7002    0.0000 C   0  0  0  0  0  0  0  0  0  0  0  0
   -0.6933   -0.8610    0.0000 N   0  0  0  0  0  0  0  0  0  0  0  0
   -1.4031   -2.1208    0.0000 N   0  0  0  0  0  0  0  0  0  0  0  0
    0.7117   -1.0421    0.0000 O   0  0  0  0  0  0  0  0  0  0  0  0
    0.0020    1.0984    0.0000 C   0  0  0  0  0  0  0  0  0  0  0  0
    0.7117    1.5190    0.0000 C   0  0  0  0  0  0  0  0  0  0  0  0
    1.4214    1.0984    0.0000 C   0  0  0  0  0  0  0  0  0  0  0  0
    2.1311    1.5190    0.0000 C   0  0  0  0  0  0  0  0  0  0  0  0
   -1.4173    1.0546    0.0000 O   0  0  0  0  0  0  0  0  0  0  0  0
   -2.8449    0.2029    0.0000 N   0  0  0  0  0  0  0  0  0  0  0  0
   -2.8449    1.0421    0.0000 C   0  0  0  0  0  0  0  0  0  0  0  0
   -3.5525    1.4628    0.0000 C   0  0  1  0  0  0  0  0  0  0  0  0
   -4.2622    1.0421    0.0000 C   0  0  0  0  0  0  0  0  0  0  0  0
   -4.9719    1.4628    0.0000 C   0  0  0  0  0  0  0  0  0  0  0  0
   -4.9719    2.3019    0.0000 C   0  0  0  0  0  0  0  0  0  0  0  0
   -5.6817    2.7205    0.0000 C   0  0  0  0  0  0  0  0  0  0  0  0
   -6.3913    2.3019    0.0000 C   0  0  0  0  0  0  0  0  0  0  0  0
   -6.3913    1.4628    0.0000 C   0  0  0  0  0  0  0  0  0  0  0  0
   -5.6817    1.0421    0.0000 C   0  0  0  0  0  0  0  0  0  0  0  0
   -3.5525    2.3019    0.0000 N   0  0  0  0  0  0  0  0  0  0  0  0
   -2.1331    1.4628    0.0000 O   0  0  0  0  0  0  0  0  0  0  0  0
  1  2  1  1  0  0  0
  1  9  1  0  0  0  0
  1 38  1  0  0  0  0
  2  3  1  0  0  0  0
  3  4  2  0  0  0  0
  3  8  1  0  0  0  0
  4  5  1  0  0  0  0
  5  6  2  0  0  0  0
  7  6  1  0  0  0  0
  8  7  2  0  0  0  0
  9 10  1  0  0  0  0
  9 37  2  0  0  0  0
 11 10  1  6  0  0  0
 11 12  1  0  0  0  0
 11 33  1  0  0  0  0
 12 13  1  0  0  0  0
 12 32  2  0  0  0  0
 14 13  1  1  0  0  0
 14 15  1  0  0  0  0
 14 25  1  0  0  0  0
 15 16  1  0  0  0  0
 15 24  2  0  0  0  0
 16 17  1  0  0  0  0
 17 18  1  0  0  0  0
 18 19  1  0  0  0  0
 18 23  2  0  0  0  0
 19 20  2  0  0  0  0
 20 21  1  0  0  0  0
 22 21  2  0  0  0  0
 23 22  1  0  0  0  0
 25 26  1  0  0  0  0
 26 27  1  0  0  0  0
 27 28  1  0  0  0  0
 28 29  1  0  0  0  0
 29 30  2  0  0  0  0
 29 31  1  0  0  0  0
 33 34  1  0  0  0  0
 34 35  1  0  0  0  0
 35 36  1  0  0  0  0
 38 39  1  0  0  0  0
 39 49  2  0  0  0  0
 40 39  1  1  0  0  0
 40 41  1  0  0  0  0
 40 48  1  0  0  0  0
 41 42  1  0  0  0  0
 42 43  2  0  0  0  0
 42 47  1  0  0  0  0
 43 44  1  0  0  0  0
 44 45  2  0  0  0  0
 46 45  1  0  0  0  0
 47 46  2  0  0  0  0
M  END
>  <DATABASE_ID>
DB05155

>  <DATABASE_NAME>
drugbank

>  <SMILES>
CCCC[C@@H](NC(=O)[C@@H](CC1=CC=CC=C1)NC(=O)[C@H](N)CC1=CC=CC=C1)C(=O)N[C@H](CCCNC(N)=N)C(=O)NCC1=CC=NC=C1

>  <INCHI_IDENTIFIER>
InChI=1S/C36H49N9O4/c1-2-3-15-30(34(48)43-29(16-10-19-41-36(38)39)33(47)42-24-27-17-20-40-21-18-27)44-35(49)31(23-26-13-8-5-9-14-26)45-32(46)28(37)22-25-11-6-4-7-12-25/h4-9,11-14,17-18,20-21,28-31H,2-3,10,15-16,19,22-24,37H2,1H3,(H,42,47)(H,43,48)(H,44,49)(H,45,46)(H4,38,39,41)/t28-,29-,30-,31-/m1/s1

>  <INCHI_KEY>
DBOGGOVKHSCMNB-OMRVPHBLSA-N

>  <FORMULA>
C36H49N9O4

>  <MOLECULAR_WEIGHT>
671.847

>  <EXACT_MASS>
671.390751094

>  <JCHEM_ACCEPTOR_COUNT>
9

>  <JCHEM_ATOM_COUNT>
98

>  <JCHEM_AVERAGE_NEUTRAL_MICROSPECIES_CHARGE>
1.846739773646969

>  <JCHEM_AVERAGE_POLARIZABILITY>
74.14380158954827

>  <JCHEM_BIOAVAILABILITY>
0

>  <JCHEM_DONOR_COUNT>
8

>  <JCHEM_FORMAL_CHARGE>
0

>  <JCHEM_GHOSE_FILTER>
0

>  <JCHEM_IUPAC>
(2R)-2-[(2R)-2-[(2R)-2-amino-3-phenylpropanamido]-3-phenylpropanamido]-N-[(1R)-4-carbamimidamido-1-{[(pyridin-4-yl)methyl]carbamoyl}butyl]hexanamide

>  <ALOGPS_LOGP>
1.41

>  <JCHEM_LOGP>
1.1215495223931056

>  <ALOGPS_LOGS>
-5.28

>  <JCHEM_MDDR_LIKE_RULE>
1

>  <JCHEM_NEUTRAL_CHARGE>
2

>  <JCHEM_NUMBER_OF_RINGS>
3

>  <JCHEM_PHYSIOLOGICAL_CHARGE>
2

>  <JCHEM_PKA>
12.621455688006732

>  <JCHEM_PKA_STRONGEST_ACIDIC>
12.17934375253419

>  <JCHEM_PKA_STRONGEST_BASIC>
11.687289817475945

>  <JCHEM_POLAR_SURFACE_AREA>
217.21

>  <JCHEM_REFRACTIVITY>
197.9539

>  <JCHEM_ROTATABLE_BOND_COUNT>
20

>  <JCHEM_RULE_OF_FIVE>
0

>  <ALOGPS_SOLUBILITY>
3.49e-03 g/l

>  <JCHEM_TRADITIONAL_IUPAC>
prinomastat

>  <JCHEM_VEBER_RULE>
0

>  <DRUGBANK_ID>
DB05155

>  <DRUG_GROUPS>
investigational

>  <GENERIC_NAME>
CR665

$$$$

 OpenBabel05042401512D

 43 45  0  0  1  0  0  0  0  0999 V2000
    4.5080   -4.3480    0.0000 F   0  0  0  0  0  0  0  0  0  0  0  0
    6.6746    2.8947    0.0000 O   0  0  0  0  0  0  0  0  0  0  0  0
    5.9370    0.6021    0.0000 O   0  0  0  0  0  0  0  0  0  0  0  0
    6.6515    0.1896    0.0000 O   0  0  0  0  0  0  0  0  0  0  0  0
    2.3645    2.6646    0.0000 O   0  0  0  0  0  0  0  0  0  0  0  0
    8.7949   -1.8730    0.0000 O   0  0  0  0  0  0  0  0  0  0  0  0
    1.6500    1.4271    0.0000 O   0  0  0  0  0  0  0  0  0  0  0  0
   10.8152   -0.3579    0.0000 O   0  0  0  0  0  0  0  0  0  0  0  0
    5.6350    3.9342    0.0000 N   0  0  0  0  0  0  0  0  0  0  0  0
    4.5080    0.6021    0.0000 N   0  0  0  0  0  0  0  0  0  0  0  0
    8.0804   -0.6354    0.0000 N   0  0  0  0  0  0  0  0  0  0  0  0
   10.2631   -0.9710    0.0000 N   0  0  0  0  0  0  0  0  0  0  0  0
    5.2224    2.6646    0.0000 C   0  0  2  0  0  0  0  0  0  0  0  0
    5.2224    1.8396    0.0000 C   0  0  0  0  0  0  0  0  0  0  0  0
    4.5550    3.1496    0.0000 C   0  0  0  0  0  0  0  0  0  0  0  0
    4.5080    1.4271    0.0000 C   0  0  1  0  0  0  0  0  0  0  0  0
    4.8099    3.9342    0.0000 C   0  0  0  0  0  0  0  0  0  0  0  0
    5.8899    3.1496    0.0000 C   0  0  0  0  0  0  0  0  0  0  0  0
    5.2224   -0.6354    0.0000 C   0  0  2  0  0  0  0  0  0  0  0  0
    5.9370   -1.0479    0.0000 C   0  0  0  0  0  0  0  0  0  0  0  0
    5.2224    0.1896    0.0000 C   0  0  0  0  0  0  0  0  0  0  0  0
    7.3659   -1.0479    0.0000 C   0  0  1  0  0  0  0  0  0  0  0  0
    4.5080   -1.0479    0.0000 C   0  0  0  0  0  0  0  0  0  0  0  0
    7.3659   -1.8730    0.0000 C   0  0  0  0  0  0  0  0  0  0  0  0
    6.6515   -0.6354    0.0000 C   0  0  0  0  0  0  0  0  0  0  0  0
    3.7935    1.8396    0.0000 C   0  0  0  0  0  0  0  0  0  0  0  0
    4.5080   -1.8730    0.0000 C   0  0  0  0  0  0  0  0  0  0  0  0
    6.6515   -2.2855    0.0000 C   0  0  0  0  0  0  0  0  0  0  0  0
    8.0804   -2.2855    0.0000 C   0  0  0  0  0  0  0  0  0  0  0  0
    3.0791    1.4271    0.0000 C   0  0  0  0  0  0  0  0  0  0  0  0
    5.2224   -2.2855    0.0000 C   0  0  0  0  0  0  0  0  0  0  0  0
    3.7935   -2.2855    0.0000 C   0  0  0  0  0  0  0  0  0  0  0  0
    8.7949   -1.0479    0.0000 C   0  0  0  0  0  0  0  0  0  0  0  0
    2.3645    1.8396    0.0000 C   0  0  0  0  0  0  0  0  0  0  0  0
    5.2224   -3.1105    0.0000 C   0  0  0  0  0  0  0  0  0  0  0  0
    3.7935   -3.1105    0.0000 C   0  0  0  0  0  0  0  0  0  0  0  0
    9.5094   -0.6354    0.0000 C   0  0  0  0  0  0  0  0  0  0  0  0
    4.5080   -3.5230    0.0000 C   0  0  0  0  0  0  0  0  0  0  0  0
    9.5956    0.1851    0.0000 C   0  0  0  0  0  0  0  0  0  0  0  0
   10.4027    0.3566    0.0000 C   0  0  0  0  0  0  0  0  0  0  0  0
    1.6500    3.0772    0.0000 C   0  0  0  0  0  0  0  0  0  0  0  0
   10.7382    1.1103    0.0000 C   0  0  0  0  0  0  0  0  0  0  0  0
    1.6500    3.9022    0.0000 C   0  0  0  0  0  0  0  0  0  0  0  0
  1 38  1  0  0  0  0
  2 18  2  0  0  0  0
  3 21  2  0  0  0  0
  4 25  2  0  0  0  0
  5 34  1  0  0  0  0
  5 41  1  0  0  0  0
  6 33  2  0  0  0  0
  7 34  2  0  0  0  0
  8 12  1  0  0  0  0
  8 40  1  0  0  0  0
  9 17  1  0  0  0  0
  9 18  1  0  0  0  0
 10 21  1  0  0  0  0
 11 33  1  0  0  0  0
 12 37  2  0  0  0  0
 13 14  1  6  0  0  0
 13 15  1  0  0  0  0
 13 18  1  0  0  0  0
 14 16  1  0  0  0  0
 15 17  1  0  0  0  0
 16 10  1  6  0  0  0
 16 26  1  0  0  0  0
 19 20  1  1  0  0  0
 19 21  1  0  0  0  0
 19 23  1  0  0  0  0
 20 25  1  0  0  0  0
 22 11  1  1  0  0  0
 22 24  1  0  0  0  0
 22 25  1  0  0  0  0
 23 27  1  0  0  0  0
 24 28  1  0  0  0  0
 24 29  1  0  0  0  0
 26 30  2  0  0  0  0
 27 31  2  0  0  0  0
 27 32  1  0  0  0  0
 30 34  1  0  0  0  0
 31 35  1  0  0  0  0
 32 36  2  0  0  0  0
 33 37  1  0  0  0  0
 35 38  2  0  0  0  0
 36 38  1  0  0  0  0
 37 39  1  0  0  0  0
 39 40  2  0  0  0  0
 40 42  1  0  0  0  0
 41 43  1  0  0  0  0
M  END
>  <DATABASE_ID>
DB05102

>  <DATABASE_NAME>
drugbank

>  <SMILES>
CCOC(=O)\C=C\[C@H](C[C@@H]1CCNC1=O)NC(=O)[C@@H](CC(=O)[C@H](C(C)C)NC(=O)C1=NOC(C)=C1)CC1=CC=C(F)C=C1

>  <INCHI_IDENTIFIER>
InChI=1S/C31H39FN4O7/c1-5-42-27(38)11-10-24(16-21-12-13-33-29(21)39)34-30(40)22(15-20-6-8-23(32)9-7-20)17-26(37)28(18(2)3)35-31(41)25-14-19(4)43-36-25/h6-11,14,18,21-22,24,28H,5,12-13,15-17H2,1-4H3,(H,33,39)(H,34,40)(H,35,41)/b11-10+/t21-,22+,24+,28-/m0/s1

>  <INCHI_KEY>
CAYJBRBGZBCZKO-BHGBQCOSSA-N

>  <FORMULA>
C31H39FN4O7

>  <MOLECULAR_WEIGHT>
598.6624

>  <EXACT_MASS>
598.280277827

>  <JCHEM_ACCEPTOR_COUNT>
6

>  <JCHEM_ATOM_COUNT>
82

>  <JCHEM_AVERAGE_NEUTRAL_MICROSPECIES_CHARGE>
-3.2768361430002702e-06

>  <JCHEM_AVERAGE_POLARIZABILITY>
62.56447418595246

>  <JCHEM_BIOAVAILABILITY>
0

>  <JCHEM_DONOR_COUNT>
3

>  <JCHEM_FORMAL_CHARGE>
0

>  <JCHEM_GHOSE_FILTER>
0

>  <JCHEM_IUPAC>
ethyl (2E,4S)-4-[(2R,5S)-2-[(4-fluorophenyl)methyl]-6-methyl-5-[(5-methyl-1,2-oxazol-3-yl)formamido]-4-oxoheptanamido]-5-[(3S)-2-oxopyrrolidin-3-yl]pent-2-enoate

>  <ALOGPS_LOGP>
2.43

>  <JCHEM_LOGP>
3.2100792806666645

>  <ALOGPS_LOGS>
-4.29

>  <JCHEM_MDDR_LIKE_RULE>
1

>  <JCHEM_NEUTRAL_CHARGE>
0

>  <JCHEM_NUMBER_OF_RINGS>
3

>  <JCHEM_PHYSIOLOGICAL_CHARGE>
0

>  <JCHEM_PKA>
13.99780662894541

>  <JCHEM_PKA_STRONGEST_ACIDIC>
12.496882811274155

>  <JCHEM_PKA_STRONGEST_BASIC>
-0.592260379160507

>  <JCHEM_POLAR_SURFACE_AREA>
156.7

>  <JCHEM_REFRACTIVITY>
157.2441

>  <JCHEM_ROTATABLE_BOND_COUNT>
16

>  <JCHEM_RULE_OF_FIVE>
0

>  <ALOGPS_SOLUBILITY>
3.06e-02 g/l

>  <JCHEM_TRADITIONAL_IUPAC>
tetrahydrofolic acid

>  <JCHEM_VEBER_RULE>
0

>  <DRUGBANK_ID>
DB05102

>  <DRUG_GROUPS>
investigational

>  <GENERIC_NAME>
Rupintrivir

>  <SYNONYMS>
Rupintrivir

$$$$

 OpenBabel05042401512D

 39 41  0  0  0  0  0  0  0  0999 V2000
    2.3645   -1.8460    0.0000 S   0  0  0  0  0  0  0  0  0  0  0  0
    6.0031   -2.9224    0.0000 O   0  0  0  0  0  0  0  0  0  0  0  0
    9.4885   -0.1299    0.0000 O   0  0  0  0  0  0  0  0  0  0  0  0
    5.7085   -0.1964    0.0000 O   0  0  0  0  0  0  0  0  0  0  0  0
    2.7770   -2.5604    0.0000 O   0  0  0  0  0  0  0  0  0  0  0  0
    1.9520   -1.1315    0.0000 O   0  0  0  0  0  0  0  0  0  0  0  0
   11.6158    1.7788    0.0000 N   0  0  0  0  0  0  0  0  0  0  0  0
    3.0791   -1.4335    0.0000 N   0  0  0  0  0  0  0  0  0  0  0  0
   11.8720    2.5630    0.0000 C   0  0  0  0  0  0  0  0  0  0  0  0
   12.1667    1.1648    0.0000 C   0  0  0  0  0  0  0  0  0  0  0  0
   10.8085    1.6087    0.0000 C   0  0  0  0  0  0  0  0  0  0  0  0
   12.6793    2.7331    0.0000 C   0  0  0  0  0  0  0  0  0  0  0  0
   12.9740    1.3349    0.0000 C   0  0  0  0  0  0  0  0  0  0  0  0
   10.5521    0.8245    0.0000 C   0  0  0  0  0  0  0  0  0  0  0  0
   12.9356    3.5173    0.0000 C   0  0  0  0  0  0  0  0  0  0  0  0
   13.5250    0.7208    0.0000 C   0  0  0  0  0  0  0  0  0  0  0  0
    9.7449    0.6543    0.0000 C   0  0  0  0  0  0  0  0  0  0  0  0
    6.4846   -2.2585    0.0000 C   0  0  0  0  0  0  0  0  0  0  0  0
    6.0031   -1.5946    0.0000 C   0  0  0  0  0  0  0  0  0  0  0  0
    7.3097   -2.2585    0.0000 C   0  0  0  0  0  0  0  0  0  0  0  0
    5.2224   -1.8460    0.0000 C   0  0  0  0  0  0  0  0  0  0  0  0
    7.7222   -2.9730    0.0000 C   0  0  0  0  0  0  0  0  0  0  0  0
   13.7429    3.6875    0.0000 C   0  0  0  0  0  0  0  0  0  0  0  0
   14.3323    0.8909    0.0000 C   0  0  0  0  0  0  0  0  0  0  0  0
    5.2224   -2.6710    0.0000 C   0  0  0  0  0  0  0  0  0  0  0  0
    6.2594   -0.8104    0.0000 C   0  0  0  0  0  0  0  0  0  0  0  0
    8.5472   -2.9730    0.0000 C   0  0  0  0  0  0  0  0  0  0  0  0
    4.5080   -1.4335    0.0000 C   0  0  0  0  0  0  0  0  0  0  0  0
    7.0667   -0.6402    0.0000 C   0  0  0  0  0  0  0  0  0  0  0  0
    3.7935   -1.8460    0.0000 C   0  0  0  0  0  0  0  0  0  0  0  0
    8.6813   -0.3000    0.0000 C   0  0  0  0  0  0  0  0  0  0  0  0
    4.5080   -3.0835    0.0000 C   0  0  0  0  0  0  0  0  0  0  0  0
    3.7935   -2.6710    0.0000 C   0  0  0  0  0  0  0  0  0  0  0  0
    7.3230    0.1440    0.0000 C   0  0  0  0  0  0  0  0  0  0  0  0
    7.6177   -1.2543    0.0000 C   0  0  0  0  0  0  0  0  0  0  0  0
    8.1303    0.3141    0.0000 C   0  0  0  0  0  0  0  0  0  0  0  0
    8.4250   -1.0842    0.0000 C   0  0  0  0  0  0  0  0  0  0  0  0
    8.9597   -3.6875    0.0000 C   0  0  0  0  0  0  0  0  0  0  0  0
    1.6500   -2.2585    0.0000 C   0  0  0  0  0  0  0  0  0  0  0  0
  1  5  2  0  0  0  0
  1  6  2  0  0  0  0
  1  8  1  0  0  0  0
  1 39  1  0  0  0  0
  2 18  1  0  0  0  0
  2 25  1  0  0  0  0
  3 17  1  0  0  0  0
  3 31  1  0  0  0  0
  4 26  2  0  0  0  0
  7  9  1  0  0  0  0
  7 10  1  0  0  0  0
  7 11  1  0  0  0  0
  8 30  1  0  0  0  0
  9 12  1  0  0  0  0
 10 13  1  0  0  0  0
 11 14  1  0  0  0  0
 12 15  1  0  0  0  0
 13 16  1  0  0  0  0
 14 17  1  0  0  0  0
 15 23  1  0  0  0  0
 16 24  1  0  0  0  0
 18 19  2  0  0  0  0
 18 20  1  0  0  0  0
 19 21  1  0  0  0  0
 19 26  1  0  0  0  0
 20 22  1  0  0  0  0
 21 25  2  0  0  0  0
 21 28  1  0  0  0  0
 22 27  1  0  0  0  0
 25 32  1  0  0  0  0
 26 29  1  0  0  0  0
 27 38  1  0  0  0  0
 28 30  2  0  0  0  0
 29 34  2  0  0  0  0
 29 35  1  0  0  0  0
 30 33  1  0  0  0  0
 31 36  2  0  0  0  0
 31 37  1  0  0  0  0
 32 33  2  0  0  0  0
 34 36  1  0  0  0  0
 35 37  2  0  0  0  0
M  END
>  <DATABASE_ID>
DB04855

>  <DATABASE_NAME>
drugbank

>  <SMILES>
CCCCN(CCCC)CCCOC1=CC=C(C=C1)C(=O)C1=C(CCCC)OC2=C1C=C(NS(C)(=O)=O)C=C2

>  <INCHI_IDENTIFIER>
InChI=1S/C31H44N2O5S/c1-5-8-12-29-30(27-23-25(32-39(4,35)36)15-18-28(27)38-29)31(34)24-13-16-26(17-14-24)37-22-11-21-33(19-9-6-2)20-10-7-3/h13-18,23,32H,5-12,19-22H2,1-4H3

>  <INCHI_KEY>
ZQTNQVWKHCQYLQ-UHFFFAOYSA-N

>  <FORMULA>
C31H44N2O5S

>  <MOLECULAR_WEIGHT>
556.756

>  <EXACT_MASS>
556.297093218

>  <JCHEM_ACCEPTOR_COUNT>
5

>  <JCHEM_ATOM_COUNT>
83

>  <JCHEM_AVERAGE_NEUTRAL_MICROSPECIES_CHARGE>
0.9929697471399417

>  <JCHEM_AVERAGE_POLARIZABILITY>
66.05334860306354

>  <JCHEM_BIOAVAILABILITY>
0

>  <JCHEM_DONOR_COUNT>
1

>  <JCHEM_FORMAL_CHARGE>
0

>  <JCHEM_GHOSE_FILTER>
0

>  <JCHEM_IUPAC>
N-(2-butyl-3-{4-[3-(dibutylamino)propoxy]benzoyl}-1-benzofuran-5-yl)methanesulfonamide

>  <ALOGPS_LOGP>
6.46

>  <JCHEM_LOGP>
5.181386837074793

>  <ALOGPS_LOGS>
-5.44

>  <JCHEM_MDDR_LIKE_RULE>
1

>  <JCHEM_NEUTRAL_CHARGE>
1

>  <JCHEM_NUMBER_OF_RINGS>
3

>  <JCHEM_PHYSIOLOGICAL_CHARGE>
1

>  <JCHEM_PKA_STRONGEST_ACIDIC>
9.181579162568708

>  <JCHEM_PKA_STRONGEST_BASIC>
10.309280292807985

>  <JCHEM_POLAR_SURFACE_AREA>
88.85

>  <JCHEM_REFRACTIVITY>
158.12839999999994

>  <JCHEM_ROTATABLE_BOND_COUNT>
17

>  <JCHEM_RULE_OF_FIVE>
0

>  <ALOGPS_SOLUBILITY>
2.01e-03 g/l

>  <JCHEM_TRADITIONAL_IUPAC>
tetrahydrofolic acid

>  <JCHEM_VEBER_RULE>
0

>  <DRUGBANK_ID>
DB04855

>  <DRUG_GROUPS>
approved

>  <GENERIC_NAME>
Dronedarone

>  <SYNONYMS>
Dronedarona; Dronedarone; N-(2-butyl-3-(4-(3-(dibutylamino)propoxy)benzoyl)-5-benzofuranyl)-methanesulfonamide; N-(2-butyl-3-(p-(3-(dibutylamino)propoxy)benzoyl)-5-benzofuranyl)methanesulfonamide

>  <PRODUCTS>
Asn-dronedarone; Multaq

>  <SALTS>
Dronedarone hydrochloride

$$$$
4838
 OpenBabel05042401512D

 20 21  0  0  1  0  0  0  0  0999 V2000
    3.5220    0.6740    0.0000 O   0  0  0  0  0  0  0  0  0  0  0  0
    4.2365   -0.5635    0.0000 O   0  0  0  0  0  0  0  0  0  0  0  0
    2.0930   -0.1510    0.0000 O   0  0  0  0  0  0  0  0  0  0  0  0
    4.9509    2.3241    0.0000 C   0  0  0  0  0  0  0  0  0  0  0  0
    5.6655    1.9116    0.0000 C   0  0  0  0  0  0  0  0  0  0  0  0
    5.6655    1.0865    0.0000 C   0  0  3  0  0  0  0  0  0  0  0  0
    4.2365    1.9116    0.0000 C   0  0  0  0  0  0  0  0  0  0  0  0
    4.2365    1.0865    0.0000 C   0  0  3  0  0  0  0  0  0  0  0  0
    4.9509    0.6740    0.0000 C   0  0  0  0  0  0  0  0  0  0  0  0
    5.3634    3.0385    0.0000 C   0  0  0  0  0  0  0  0  0  0  0  0
    4.5384    3.0385    0.0000 C   0  0  0  0  0  0  0  0  0  0  0  0
    6.3799    0.6740    0.0000 C   0  0  0  0  0  0  0  0  0  0  0  0
    3.5220   -0.1510    0.0000 C   0  0  0  0  0  0  0  0  0  0  0  0
    2.8075   -0.5635    0.0000 C   0  0  3  0  0  0  0  0  0  0  0  0
    2.8075   -1.3885    0.0000 C   0  0  0  0  0  0  0  0  0  0  0  0
    2.0930   -1.8010    0.0000 C   0  0  0  0  0  0  0  0  0  0  0  0
    3.5220   -1.8010    0.0000 C   0  0  0  0  0  0  0  0  0  0  0  0
    2.0930   -2.6260    0.0000 C   0  0  0  0  0  0  0  0  0  0  0  0
    3.5220   -2.6260    0.0000 C   0  0  0  0  0  0  0  0  0  0  0  0
    2.8075   -3.0385    0.0000 C   0  0  0  0  0  0  0  0  0  0  0  0
  1  8  1  0  0  0  0
  1 13  1  0  0  0  0
  2 13  2  0  0  0  0
  3 14  1  0  0  0  0
  4  5  1  0  0  0  0
  4  7  1  0  0  0  0
  4 10  1  0  0  0  0
  4 11  1  0  0  0  0
  5  6  1  0  0  0  0
  6  9  1  0  0  0  0
  6 12  1  0  0  0  0
  7  8  1  0  0  0  0
  8  9  1  0  0  0  0
 13 14  1  0  0  0  0
 14 15  1  0  0  0  0
 15 16  2  0  0  0  0
 15 17  1  0  0  0  0
 16 18  1  0  0  0  0
 17 19  2  0  0  0  0
 18 20  2  0  0  0  0
 19 20  1  0  0  0  0
M  END
>  <DATABASE_ID>
DB04838

>  <DATABASE_NAME>
drugbank

>  <SMILES>
CC1CC(CC(C)(C)C1)OC(=O)C(O)C1=CC=CC=C1

>  <INCHI_IDENTIFIER>
InChI=1S/C17H24O3/c1-12-9-14(11-17(2,3)10-12)20-16(19)15(18)13-7-5-4-6-8-13/h4-8,12,14-15,18H,9-11H2,1-3H3

>  <INCHI_KEY>
WZHCOOQXZCIUNC-UHFFFAOYSA-N

>  <FORMULA>
C17H24O3

>  <MOLECULAR_WEIGHT>
276.3707

>  <EXACT_MASS>
276.172544634

>  <JCHEM_ACCEPTOR_COUNT>
2

>  <JCHEM_ATOM_COUNT>
44

>  <JCHEM_AVERAGE_NEUTRAL_MICROSPECIES_CHARGE>
-1.0206933894149933e-05

>  <JCHEM_AVERAGE_POLARIZABILITY>
30.94867940634959

>  <JCHEM_BIOAVAILABILITY>
1

>  <JCHEM_DONOR_COUNT>
1

>  <JCHEM_FORMAL_CHARGE>
0

>  <JCHEM_GHOSE_FILTER>
1

>  <JCHEM_IUPAC>
3,3,5-trimethylcyclohexyl 2-hydroxy-2-phenylacetate

>  <ALOGPS_LOGP>
3.79

>  <JCHEM_LOGP>
3.715085545

>  <ALOGPS_LOGS>
-3.44

>  <JCHEM_MDDR_LIKE_RULE>
0

>  <JCHEM_NEUTRAL_CHARGE>
0

>  <JCHEM_NUMBER_OF_RINGS>
2

>  <JCHEM_PHYSIOLOGICAL_CHARGE>
0

>  <JCHEM_PKA_STRONGEST_ACIDIC>
11.991099938529693

>  <JCHEM_PKA_STRONGEST_BASIC>
-4.1148928868871115

>  <JCHEM_POLAR_SURFACE_AREA>
46.53

>  <JCHEM_REFRACTIVITY>
78.05940000000001

>  <JCHEM_ROTATABLE_BOND_COUNT>
4

>  <JCHEM_RULE_OF_FIVE>
1

>  <ALOGPS_SOLUBILITY>
9.95e-02 g/l

>  <JCHEM_TRADITIONAL_IUPAC>
biotin

>  <JCHEM_VEBER_RULE>
0

>  <DRUGBANK_ID>
DB04838

>  <DRUG_GROUPS>
approved

>  <GENERIC_NAME>
Cyclandelate

>  <SYNONYMS>
3,3,5-Trimethylcyclohexyl mandelate; 3,5,5-Trimethylcyclohexyl amygdalate; Ciclandelato; Cyclandelate; Cyclandelatum

>  <PRODUCTS>
Cyclospasmol Tablets 200mg

>  <INTERNATIONAL_BRANDS>
Capilan; Cyclergine; Cyclospasmol

$$$$

 OpenBabel05042401512D

 36 39  0  0  1  0  0  0  0  0999 V2000
   -0.9900   -0.3105    0.0000 O   0  0  0  0  0  0  0  0  0  0  0  0
    0.5753    1.0208    0.0000 O   0  0  0  0  0  0  0  0  0  0  0  0
   -1.2449    1.8090    0.0000 O   0  0  0  0  0  0  0  0  0  0  0  0
    0.8316   -1.0912    0.0000 O   0  0  0  0  0  0  0  0  0  0  0  0
   -4.7701    1.0973    0.0000 N   0  0  0  0  0  0  0  0  0  0  0  0
   -3.7082    0.1411    0.0000 N   0  0  0  0  0  0  0  0  0  0  0  0
    4.3171   -2.5560    0.0000 N   0  0  0  0  0  0  0  0  0  0  0  0
    4.6118   -1.1577    0.0000 N   0  0  0  0  0  0  0  0  0  0  0  0
   -0.2053    0.7694    0.0000 C   0  0  1  0  0  0  0  0  0  0  0  0
   -0.2053   -0.0556    0.0000 C   0  0  1  0  0  0  0  0  0  0  0  0
   -0.9900    1.0243    0.0000 C   0  0  2  0  0  0  0  0  0  0  0  0
    0.5753   -0.3070    0.0000 C   0  0  1  0  0  0  0  0  0  0  0  0
   -1.4749    0.3569    0.0000 C   0  0  0  0  0  0  0  0  0  0  0  0
    1.0568    0.3569    0.0000 C   0  0  0  0  0  0  0  0  0  0  0  0
   -2.0520    1.9806    0.0000 C   0  0  0  0  0  0  0  0  0  0  0  0
    1.6389   -1.2614    0.0000 C   0  0  0  0  0  0  0  0  0  0  0  0
   -2.6040    1.3674    0.0000 C   0  0  0  0  0  0  0  0  0  0  0  0
    2.1899   -0.6473    0.0000 C   0  0  0  0  0  0  0  0  0  0  0  0
    1.8952   -2.0456    0.0000 C   0  0  0  0  0  0  0  0  0  0  0  0
   -2.3069    2.7652    0.0000 C   0  0  0  0  0  0  0  0  0  0  0  0
   -3.4111    1.5389    0.0000 C   0  0  0  0  0  0  0  0  0  0  0  0
    2.9972   -0.8174    0.0000 C   0  0  0  0  0  0  0  0  0  0  0  0
    2.7025   -2.2157    0.0000 C   0  0  0  0  0  0  0  0  0  0  0  0
   -3.1139    2.9367    0.0000 C   0  0  0  0  0  0  0  0  0  0  0  0
    3.2535   -1.6016    0.0000 C   0  0  0  0  0  0  0  0  0  0  0  0
   -3.6660    2.3236    0.0000 C   0  0  0  0  0  0  0  0  0  0  0  0
   -3.9631    0.9258    0.0000 C   0  0  0  0  0  0  0  0  0  0  0  0
    4.0608   -1.7717    0.0000 C   0  0  0  0  0  0  0  0  0  0  0  0
   -0.2044    1.4294    0.0000 H   0  0  0  0  0  0  0  0  0  0  0  0
   -0.2044   -0.7156    0.0000 H   0  0  0  0  0  0  0  0  0  0  0  0
   -4.9282    1.5839    0.0000 H   0  0  0  0  0  0  0  0  0  0  0  0
   -5.1124    0.7172    0.0000 H   0  0  0  0  0  0  0  0  0  0  0  0
   -4.0504   -0.2389    0.0000 H   0  0  0  0  0  0  0  0  0  0  0  0
    3.9755   -2.9367    0.0000 H   0  0  0  0  0  0  0  0  0  0  0  0
    4.8177   -2.6615    0.0000 H   0  0  0  0  0  0  0  0  0  0  0  0
    5.1124   -1.2632    0.0000 H   0  0  0  0  0  0  0  0  0  0  0  0
  1 10  1  0  0  0  0
  1 13  1  0  0  0  0
  2  9  1  0  0  0  0
  2 14  1  0  0  0  0
  3 15  1  0  0  0  0
  4 16  1  0  0  0  0
  5 27  1  0  0  0  0
  5 31  1  0  0  0  0
  5 32  1  0  0  0  0
  6 27  2  0  0  0  0
  6 33  1  0  0  0  0
  7 28  1  0  0  0  0
  7 34  1  0  0  0  0
  7 35  1  0  0  0  0
  8 28  2  0  0  0  0
  8 36  1  0  0  0  0
  9 10  1  0  0  0  0
  9 11  1  0  0  0  0
  9 29  1  6  0  0  0
 10 12  1  0  0  0  0
 10 30  1  6  0  0  0
 11  3  1  6  0  0  0
 11 13  1  0  0  0  0
 12  4  1  1  0  0  0
 12 14  1  0  0  0  0
 15 17  1  0  0  0  0
 15 20  2  0  0  0  0
 16 18  2  0  0  0  0
 16 19  1  0  0  0  0
 17 21  2  0  0  0  0
 18 22  1  0  0  0  0
 19 23  2  0  0  0  0
 20 24  1  0  0  0  0
 21 26  1  0  0  0  0
 21 27  1  0  0  0  0
 22 25  2  0  0  0  0
 23 25  1  0  0  0  0
 24 26  2  0  0  0  0
 25 28  1  0  0  0  0
M  END
>  <DATABASE_ID>
DB04793

>  <DATABASE_NAME>
drugbank

>  <SMILES>
[H]N=C(N([H])[H])C1=CC=C(O[C@@H]2CO[C@]3([H])[C@H](CO[C@]23[H])OC2=CC=CC(=C2)C(=N[H])N([H])[H])C=C1

>  <INCHI_IDENTIFIER>
InChI=1S/C20H22N4O4/c21-19(22)11-4-6-13(7-5-11)27-15-9-25-18-16(10-26-17(15)18)28-14-3-1-2-12(8-14)20(23)24/h1-8,15-18H,9-10H2,(H3,21,22)(H3,23,24)/t15-,16+,17-,18-/m1/s1

>  <INCHI_KEY>
DKBAWRNTUZFJKV-XMTFNYHQSA-N

>  <FORMULA>
C20H22N4O4

>  <MOLECULAR_WEIGHT>
382.4131

>  <EXACT_MASS>
382.164105212

>  <JCHEM_ACCEPTOR_COUNT>
8

>  <JCHEM_ATOM_COUNT>
50

>  <JCHEM_AVERAGE_POLARIZABILITY>
40.17490966542833

>  <JCHEM_BIOAVAILABILITY>
1

>  <JCHEM_DONOR_COUNT>
4

>  <JCHEM_FORMAL_CHARGE>
0

>  <JCHEM_GHOSE_FILTER>
1

>  <JCHEM_IUPAC>
4-{[(3R,3aR,6S,6aR)-6-(3-carbamimidoylphenoxy)-hexahydrofuro[3,2-b]furan-3-yl]oxy}benzene-1-carboximidamide

>  <ALOGPS_LOGP>
0.35

>  <JCHEM_LOGP>
1.1026284826666666

>  <ALOGPS_LOGS>
-3.86

>  <JCHEM_MDDR_LIKE_RULE>
1

>  <JCHEM_NUMBER_OF_RINGS>
4

>  <JCHEM_PHYSIOLOGICAL_CHARGE>
2

>  <JCHEM_PKA_STRONGEST_BASIC>
11.892720892248343

>  <JCHEM_POLAR_SURFACE_AREA>
136.66000000000003

>  <JCHEM_REFRACTIVITY>
123.24820000000003

>  <JCHEM_ROTATABLE_BOND_COUNT>
6

>  <JCHEM_RULE_OF_FIVE>
1

>  <ALOGPS_SOLUBILITY>
5.24e-02 g/l

>  <JCHEM_TRADITIONAL_IUPAC>
4-{[(3R,3aR,6S,6aR)-6-(3-carbamimidoylphenoxy)-hexahydrofuro[3,2-b]furan-3-yl]oxy}benzenecarboximidamide

>  <JCHEM_VEBER_RULE>
0

>  <DRUGBANK_ID>
DB04793

>  <DRUG_GROUPS>
experimental

>  <GENERIC_NAME>
1,4:3,6-Dianhydro-2-O-(3-carbamimidoylphenyl)-5-O-(4-carbamimidoylphenyl)-D-glucitol

$$$$
TL2
 OpenBabel05042401512D

 32 35  0  0  1  0  0  0  0  0999 V2000
   -4.3496   -3.1101    0.0000 N   0  0  0  0  0  0  0  0  0  0  0  0
   -4.0946   -2.3255    0.0000 C   0  0  0  0  0  0  0  0  0  0  0  0
   -3.2877   -2.1540    0.0000 C   0  0  0  0  0  0  0  0  0  0  0  0
   -3.0327   -1.3694    0.0000 C   0  0  0  0  0  0  0  0  0  0  0  0
   -2.2258   -1.1978    0.0000 C   0  0  0  0  0  0  0  0  0  0  0  0
   -2.7356   -2.7671    0.0000 C   0  0  0  0  0  0  0  0  0  0  0  0
   -1.9287   -2.5956    0.0000 C   0  0  0  0  0  0  0  0  0  0  0  0
   -1.6737   -1.8109    0.0000 C   0  0  0  0  0  0  0  0  0  0  0  0
   -0.8668   -1.6394    0.0000 O   0  0  0  0  0  0  0  0  0  0  0  0
   -0.6118   -0.8548    0.0000 C   0  0  1  0  0  0  0  0  0  0  0  0
   -1.0967   -0.1873    0.0000 C   0  0  0  0  0  0  0  0  0  0  0  0
   -0.6118    0.4801    0.0000 O   0  0  0  0  0  0  0  0  0  0  0  0
    0.1728   -0.5998    0.0000 C   0  0  2  0  0  0  0  0  0  0  0  0
    0.1728    0.2252    0.0000 C   0  0  1  0  0  0  0  0  0  0  0  0
    0.9574    0.4801    0.0000 C   0  0  2  0  0  0  0  0  0  0  0  0
    1.2124    1.2647    0.0000 O   0  0  0  0  0  0  0  0  0  0  0  0
    0.9574   -0.8548    0.0000 O   0  0  0  0  0  0  0  0  0  0  0  0
    2.5714    0.8231    0.0000 C   0  0  0  0  0  0  0  0  0  0  0  0
    1.4423   -0.1873    0.0000 C   0  0  0  0  0  0  0  0  0  0  0  0
    2.0193    1.4362    0.0000 C   0  0  0  0  0  0  0  0  0  0  0  0
    2.2743    2.2209    0.0000 C   0  0  0  0  0  0  0  0  0  0  0  0
    3.3362    3.1770    0.0000 C   0  0  0  0  0  0  0  0  0  0  0  0
    2.7841    3.7901    0.0000 N   0  0  0  0  0  0  0  0  0  0  0  0
    4.1432    3.3485    0.0000 N   0  0  0  0  0  0  0  0  0  0  0  0
    3.3783    0.9947    0.0000 C   0  0  0  0  0  0  0  0  0  0  0  0
    3.6333    1.7793    0.0000 C   0  0  0  0  0  0  0  0  0  0  0  0
    3.0812    2.3924    0.0000 C   0  0  0  0  0  0  0  0  0  0  0  0
   -4.6467   -1.7124    0.0000 N   0  0  0  0  0  0  0  0  0  0  0  0
   -1.1886   -0.9461    0.0000 H   0  0  0  0  0  0  0  0  0  0  0  0
    0.1728   -1.1838    0.0000 H   0  0  0  0  0  0  0  0  0  0  0  0
    0.1728    0.8091    0.0000 H   0  0  0  0  0  0  0  0  0  0  0  0
    0.5445    0.8930    0.0000 H   0  0  0  0  0  0  0  0  0  0  0  0
  1  2  2  0  0  0  0
  2  3  1  0  0  0  0
  2 28  1  0  0  0  0
  3  4  2  0  0  0  0
  3  6  1  0  0  0  0
  4  5  1  0  0  0  0
  5  8  2  0  0  0  0
  6  7  2  0  0  0  0
  7  8  1  0  0  0  0
  8  9  1  0  0  0  0
 10  9  1  0  0  0  0
 10 11  1  0  0  0  0
 10 13  1  0  0  0  0
 10 29  1  6  0  0  0
 11 12  1  0  0  0  0
 12 14  1  0  0  0  0
 13 14  1  0  0  0  0
 13 17  1  0  0  0  0
 13 30  1  1  0  0  0
 14 15  1  0  0  0  0
 14 31  1  1  0  0  0
 15 16  1  0  0  0  0
 15 19  1  0  0  0  0
 15 32  1  1  0  0  0
 16 20  1  0  0  0  0
 17 19  1  0  0  0  0
 18 20  2  0  0  0  0
 18 25  1  0  0  0  0
 20 21  1  0  0  0  0
 21 27  2  0  0  0  0
 22 23  2  0  0  0  0
 22 24  1  0  0  0  0
 22 27  1  0  0  0  0
 25 26  2  0  0  0  0
 26 27  1  0  0  0  0
M  END
>  <DATABASE_ID>
DB04791

>  <DATABASE_NAME>
drugbank

>  <SMILES>
[H][C@@]1(CO[C@]2([H])[C@@]([H])(CO[C@]12[H])OC1=CC=CC(=C1)C(N)=N)OC1=CC=C(C=C1)C(N)=N

>  <INCHI_IDENTIFIER>
InChI=1S/C20H22N4O4/c21-19(22)11-4-6-13(7-5-11)27-15-9-25-18-16(10-26-17(15)18)28-14-3-1-2-12(8-14)20(23)24/h1-8,15-18H,9-10H2,(H3,21,22)(H3,23,24)/t15-,16+,17+,18+/m0/s1

>  <INCHI_KEY>
DKBAWRNTUZFJKV-BSDSXHPESA-N

>  <FORMULA>
C20H22N4O4

>  <MOLECULAR_WEIGHT>
382.4131

>  <EXACT_MASS>
382.164105212

>  <JCHEM_ACCEPTOR_COUNT>
8

>  <JCHEM_ATOM_COUNT>
50

>  <JCHEM_AVERAGE_NEUTRAL_MICROSPECIES_CHARGE>
1.9999009309750948

>  <JCHEM_AVERAGE_POLARIZABILITY>
39.96643154076322

>  <JCHEM_BIOAVAILABILITY>
1

>  <JCHEM_DONOR_COUNT>
4

>  <JCHEM_FORMAL_CHARGE>
0

>  <JCHEM_GHOSE_FILTER>
1

>  <JCHEM_IUPAC>
4-{[(3S,3aR,6R,6aR)-6-(3-carbamimidoylphenoxy)-hexahydrofuro[3,2-b]furan-3-yl]oxy}benzene-1-carboximidamide

>  <ALOGPS_LOGP>
0.35

>  <JCHEM_LOGP>
1.1026284826666666

>  <ALOGPS_LOGS>
-3.86

>  <JCHEM_MDDR_LIKE_RULE>
1

>  <JCHEM_NEUTRAL_CHARGE>
2

>  <JCHEM_NUMBER_OF_RINGS>
4

>  <JCHEM_PHYSIOLOGICAL_CHARGE>
2

>  <JCHEM_PKA_STRONGEST_BASIC>
11.892720892248343

>  <JCHEM_POLAR_SURFACE_AREA>
136.66

>  <JCHEM_REFRACTIVITY>
123.24820000000001

>  <JCHEM_ROTATABLE_BOND_COUNT>
6

>  <JCHEM_RULE_OF_FIVE>
1

>  <ALOGPS_SOLUBILITY>
5.24e-02 g/l

>  <JCHEM_TRADITIONAL_IUPAC>
biotin

>  <JCHEM_VEBER_RULE>
0

>  <DRUGBANK_ID>
DB04791

>  <DRUG_GROUPS>
experimental

>  <GENERIC_NAME>
2-O-(4'-AMIDINOPHENYL)-5-O-(3''-AMIDINOPHENYL)-1,4:3,6-DIANHYDRO-D-SORBITOL

$$$$
PB5
 OpenBabel05042401512D

 26 28  0  0  0  0  0  0  0  0999 V2000
   -0.2582    0.7521    0.0000 C   0  0  0  0  0  0  0  0  0  0  0  0
    0.4562    0.3396    0.0000 C   0  0  0  0  0  0  0  0  0  0  0  0
    0.4562   -0.4854    0.0000 C   0  0  0  0  0  0  0  0  0  0  0  0
   -0.9727    0.3396    0.0000 N   0  0  0  0  0  0  0  0  0  0  0  0
    1.1707   -0.8979    0.0000 C   0  0  0  0  0  0  0  0  0  0  0  0
    1.8852   -2.1354    0.0000 C   0  0  0  0  0  0  0  0  0  0  0  0
    1.8852   -2.9604    0.0000 C   0  0  0  0  0  0  0  0  0  0  0  0
   -0.2582    1.5771    0.0000 C   0  0  0  0  0  0  0  0  0  0  0  0
   -1.6872    4.0521    0.0000 C   0  0  0  0  0  0  0  0  0  0  0  0
   -3.1161    3.2271    0.0000 C   0  0  0  0  0  0  0  0  0  0  0  0
    2.5996   -3.3729    0.0000 C   0  0  0  0  0  0  0  0  0  0  0  0
    2.5996   -4.1979    0.0000 C   0  0  0  0  0  0  0  0  0  0  0  0
    1.8852   -4.6104    0.0000 C   0  0  0  0  0  0  0  0  0  0  0  0
    1.1707   -3.3729    0.0000 C   0  0  0  0  0  0  0  0  0  0  0  0
   -0.2582   -0.8979    0.0000 N   0  0  0  0  0  0  0  0  0  0  0  0
   -0.9727   -0.4854    0.0000 C   0  0  0  0  0  0  0  0  0  0  0  0
    1.1707   -1.7229    0.0000 N   0  0  0  0  0  0  0  0  0  0  0  0
   -0.9727    1.9896    0.0000 N   0  0  0  0  0  0  0  0  0  0  0  0
   -0.9727    2.8146    0.0000 C   0  0  0  0  0  0  0  0  0  0  0  0
   -1.6872    3.2271    0.0000 C   0  0  0  0  0  0  0  0  0  0  0  0
   -2.4017    4.4646    0.0000 N   0  0  0  0  0  0  0  0  0  0  0  0
   -3.1161    4.0521    0.0000 C   0  0  0  0  0  0  0  0  0  0  0  0
   -2.4017    2.8146    0.0000 C   0  0  0  0  0  0  0  0  0  0  0  0
    1.1707   -4.1979    0.0000 N   0  0  0  0  0  0  0  0  0  0  0  0
    0.4562    1.9896    0.0000 O   0  0  0  0  0  0  0  0  0  0  0  0
    1.8852   -0.4854    0.0000 O   0  0  0  0  0  0  0  0  0  0  0  0
  1  2  2  0  0  0  0
  1  4  1  0  0  0  0
  1  8  1  0  0  0  0
  2  3  1  0  0  0  0
  3  5  1  0  0  0  0
  3 15  2  0  0  0  0
  4 16  2  0  0  0  0
  5 17  1  0  0  0  0
  5 26  2  0  0  0  0
  6  7  1  0  0  0  0
  6 17  1  0  0  0  0
  7 11  1  0  0  0  0
  7 14  2  0  0  0  0
  8 18  1  0  0  0  0
  8 25  2  0  0  0  0
  9 20  1  0  0  0  0
  9 21  2  0  0  0  0
 10 22  2  0  0  0  0
 10 23  1  0  0  0  0
 11 12  2  0  0  0  0
 12 13  1  0  0  0  0
 13 24  2  0  0  0  0
 14 24  1  0  0  0  0
 15 16  1  0  0  0  0
 18 19  1  0  0  0  0
 19 20  1  0  0  0  0
 20 23  2  0  0  0  0
 21 22  1  0  0  0  0
M  END
>  <DATABASE_ID>
DB04761

>  <DATABASE_NAME>
drugbank

>  <SMILES>
O=C(NCC1=CC=CN=C1)C1=CC(=NC=N1)C(=O)NCC1=CN=CC=C1

>  <INCHI_IDENTIFIER>
InChI=1S/C18H16N6O2/c25-17(21-10-13-3-1-5-19-8-13)15-7-16(24-12-23-15)18(26)22-11-14-4-2-6-20-9-14/h1-9,12H,10-11H2,(H,21,25)(H,22,26)

>  <INCHI_KEY>
NHPBWKYFMTXWAA-UHFFFAOYSA-N

>  <FORMULA>
C18H16N6O2

>  <MOLECULAR_WEIGHT>
348.3586

>  <EXACT_MASS>
348.133473786

>  <JCHEM_ACCEPTOR_COUNT>
6

>  <JCHEM_ATOM_COUNT>
42

>  <JCHEM_AVERAGE_NEUTRAL_MICROSPECIES_CHARGE>
0.016189128050555307

>  <JCHEM_AVERAGE_POLARIZABILITY>
36.04076402817182

>  <JCHEM_BIOAVAILABILITY>
1

>  <JCHEM_DONOR_COUNT>
2

>  <JCHEM_FORMAL_CHARGE>
0

>  <JCHEM_GHOSE_FILTER>
1

>  <JCHEM_IUPAC>
N4,N6-bis[(pyridin-3-yl)methyl]pyrimidine-4,6-dicarboxamide

>  <ALOGPS_LOGP>
0.23

>  <JCHEM_LOGP>
-0.01632979199999976

>  <ALOGPS_LOGS>
-4.24

>  <JCHEM_MDDR_LIKE_RULE>
1

>  <JCHEM_NEUTRAL_CHARGE>
0

>  <JCHEM_NUMBER_OF_RINGS>
3

>  <JCHEM_PHYSIOLOGICAL_CHARGE>
0

>  <JCHEM_PKA>
14.031334502961606

>  <JCHEM_PKA_STRONGEST_ACIDIC>
13.027673276888784

>  <JCHEM_PKA_STRONGEST_BASIC>
5.117142266953522

>  <JCHEM_POLAR_SURFACE_AREA>
109.75999999999999

>  <JCHEM_REFRACTIVITY>
94.83989999999999

>  <JCHEM_ROTATABLE_BOND_COUNT>
6

>  <JCHEM_RULE_OF_FIVE>
1

>  <ALOGPS_SOLUBILITY>
1.99e-02 g/l

>  <JCHEM_TRADITIONAL_IUPAC>
tetrahydrofolic acid

>  <JCHEM_VEBER_RULE>
0

>  <DRUGBANK_ID>
DB04761

>  <DRUG_GROUPS>
experimental

>  <GENERIC_NAME>
PYRIMIDINE-4,6-DICARBOXYLIC ACID BIS-[(PYRIDIN-3-YLMETHYL)-AMIDE]

$$$$
PB4
 OpenBabel05042401512D

 30 32  0  0  0  0  0  0  0  0999 V2000
   -0.5473    0.7414    0.0000 C   0  0  0  0  0  0  0  0  0  0  0  0
    0.1672    0.3289    0.0000 C   0  0  0  0  0  0  0  0  0  0  0  0
    0.1672   -0.4961    0.0000 C   0  0  0  0  0  0  0  0  0  0  0  0
    0.1672   -4.6211    0.0000 C   0  0  0  0  0  0  0  0  0  0  0  0
   -2.6907    2.8039    0.0000 C   0  0  0  0  0  0  0  0  0  0  0  0
    0.8817   -0.9086    0.0000 C   0  0  0  0  0  0  0  0  0  0  0  0
    1.5961   -2.1461    0.0000 C   0  0  0  0  0  0  0  0  0  0  0  0
    1.5961   -2.9711    0.0000 C   0  0  0  0  0  0  0  0  0  0  0  0
   -0.5473    1.5664    0.0000 C   0  0  0  0  0  0  0  0  0  0  0  0
    0.1672    2.8039    0.0000 C   0  0  0  0  0  0  0  0  0  0  0  0
   -0.5473    3.2164    0.0000 C   0  0  0  0  0  0  0  0  0  0  0  0
   -1.2617    2.8039    0.0000 C   0  0  0  0  0  0  0  0  0  0  0  0
   -1.9762    4.0414    0.0000 C   0  0  0  0  0  0  0  0  0  0  0  0
    2.3106   -3.3836    0.0000 C   0  0  0  0  0  0  0  0  0  0  0  0
    2.3106   -4.2086    0.0000 C   0  0  0  0  0  0  0  0  0  0  0  0
    1.5961   -4.6211    0.0000 C   0  0  0  0  0  0  0  0  0  0  0  0
    0.8817   -3.3836    0.0000 C   0  0  0  0  0  0  0  0  0  0  0  0
   -0.5473   -0.9086    0.0000 N   0  0  0  0  0  0  0  0  0  0  0  0
   -1.2617   -0.4961    0.0000 C   0  0  0  0  0  0  0  0  0  0  0  0
   -1.2617    0.3289    0.0000 N   0  0  0  0  0  0  0  0  0  0  0  0
    0.8817   -1.7336    0.0000 N   0  0  0  0  0  0  0  0  0  0  0  0
    0.1672    1.9789    0.0000 N   0  0  0  0  0  0  0  0  0  0  0  0
   -1.9762    3.2164    0.0000 C   0  0  0  0  0  0  0  0  0  0  0  0
   -1.2617    4.4539    0.0000 C   0  0  0  0  0  0  0  0  0  0  0  0
   -0.5473    4.0414    0.0000 C   0  0  0  0  0  0  0  0  0  0  0  0
    0.8817   -4.2086    0.0000 C   0  0  0  0  0  0  0  0  0  0  0  0
   -1.2617    1.9789    0.0000 O   0  0  0  0  0  0  0  0  0  0  0  0
    1.5961   -0.4961    0.0000 O   0  0  0  0  0  0  0  0  0  0  0  0
    1.5961   -5.4461    0.0000 F   0  0  0  0  0  0  0  0  0  0  0  0
   -2.6907    4.4539    0.0000 F   0  0  0  0  0  0  0  0  0  0  0  0
  1  2  1  0  0  0  0
  1  9  1  0  0  0  0
  1 20  2  0  0  0  0
  2  3  2  0  0  0  0
  3  6  1  0  0  0  0
  3 18  1  0  0  0  0
  4 26  1  0  0  0  0
  5 23  1  0  0  0  0
  6 21  1  0  0  0  0
  6 28  2  0  0  0  0
  7  8  1  0  0  0  0
  7 21  1  0  0  0  0
  8 14  1  0  0  0  0
  8 17  2  0  0  0  0
  9 22  1  0  0  0  0
  9 27  2  0  0  0  0
 10 11  1  0  0  0  0
 10 22  1  0  0  0  0
 11 12  2  0  0  0  0
 11 25  1  0  0  0  0
 12 23  1  0  0  0  0
 13 23  2  0  0  0  0
 13 24  1  0  0  0  0
 13 30  1  0  0  0  0
 14 15  2  0  0  0  0
 15 16  1  0  0  0  0
 16 26  2  0  0  0  0
 16 29  1  0  0  0  0
 17 26  1  0  0  0  0
 18 19  2  0  0  0  0
 19 20  1  0  0  0  0
 24 25  2  0  0  0  0
M  END
>  <DATABASE_ID>
DB04760

>  <DATABASE_NAME>
drugbank

>  <SMILES>
CC1=C(F)C=CC(CNC(=O)C2=CC(=NC=N2)C(=O)NCC2=CC(C)=C(F)C=C2)=C1

>  <INCHI_IDENTIFIER>
InChI=1S/C22H20F2N4O2/c1-13-7-15(3-5-17(13)23)10-25-21(29)19-9-20(28-12-27-19)22(30)26-11-16-4-6-18(24)14(2)8-16/h3-9,12H,10-11H2,1-2H3,(H,25,29)(H,26,30)

>  <INCHI_KEY>
PYFRREJCFXFNRR-UHFFFAOYSA-N

>  <FORMULA>
C22H20F2N4O2

>  <MOLECULAR_WEIGHT>
410.4166

>  <EXACT_MASS>
410.155432314

>  <JCHEM_ACCEPTOR_COUNT>
4

>  <JCHEM_ATOM_COUNT>
50

>  <JCHEM_AVERAGE_NEUTRAL_MICROSPECIES_CHARGE>
-8.701020892405657e-07

>  <JCHEM_AVERAGE_POLARIZABILITY>
42.01414319470013

>  <JCHEM_BIOAVAILABILITY>
1

>  <JCHEM_DONOR_COUNT>
2

>  <JCHEM_FORMAL_CHARGE>
0

>  <JCHEM_GHOSE_FILTER>
1

>  <JCHEM_IUPAC>
N4,N6-bis[(4-fluoro-3-methylphenyl)methyl]pyrimidine-4,6-dicarboxamide

>  <ALOGPS_LOGP>
2.67

>  <JCHEM_LOGP>
3.7312617133333337

>  <ALOGPS_LOGS>
-5.13

>  <JCHEM_MDDR_LIKE_RULE>
1

>  <JCHEM_NEUTRAL_CHARGE>
0

>  <JCHEM_NUMBER_OF_RINGS>
3

>  <JCHEM_PHYSIOLOGICAL_CHARGE>
0

>  <JCHEM_PKA>
14.104737544670428

>  <JCHEM_PKA_STRONGEST_ACIDIC>
13.099003134157044

>  <JCHEM_PKA_STRONGEST_BASIC>
-1.3195713241870837

>  <JCHEM_POLAR_SURFACE_AREA>
83.97999999999999

>  <JCHEM_REFRACTIVITY>
109.66889999999998

>  <JCHEM_ROTATABLE_BOND_COUNT>
6

>  <JCHEM_RULE_OF_FIVE>
1

>  <ALOGPS_SOLUBILITY>
3.01e-03 g/l

>  <JCHEM_TRADITIONAL_IUPAC>
biotin

>  <JCHEM_VEBER_RULE>
0

>  <DRUGBANK_ID>
DB04760

>  <DRUG_GROUPS>
experimental

>  <GENERIC_NAME>
PYRIMIDINE-4,6-DICARBOXYLIC ACID BIS-(4-FLUORO-3-METHYL-BENZYLAMIDE)

$$$$
PB3
 OpenBabel05042401512D

 28 30  0  0  0  0  0  0  0  0999 V2000
    0.0312    0.6561    0.0000 C   0  0  0  0  0  0  0  0  0  0  0  0
    0.7457    0.2436    0.0000 C   0  0  0  0  0  0  0  0  0  0  0  0
    0.7457   -0.5814    0.0000 C   0  0  0  0  0  0  0  0  0  0  0  0
   -0.6833    0.2436    0.0000 N   0  0  0  0  0  0  0  0  0  0  0  0
    0.7457   -4.7064    0.0000 C   0  0  0  0  0  0  0  0  0  0  0  0
   -2.1122    5.1936    0.0000 C   0  0  0  0  0  0  0  0  0  0  0  0
    1.4602   -0.9939    0.0000 C   0  0  0  0  0  0  0  0  0  0  0  0
    2.1746   -2.2314    0.0000 C   0  0  0  0  0  0  0  0  0  0  0  0
    2.1746   -3.0564    0.0000 C   0  0  0  0  0  0  0  0  0  0  0  0
    0.0312    1.4811    0.0000 C   0  0  0  0  0  0  0  0  0  0  0  0
   -1.3977    3.9561    0.0000 C   0  0  0  0  0  0  0  0  0  0  0  0
   -2.8267    3.1311    0.0000 C   0  0  0  0  0  0  0  0  0  0  0  0
    2.8891   -3.4689    0.0000 C   0  0  0  0  0  0  0  0  0  0  0  0
    2.8891   -4.2939    0.0000 C   0  0  0  0  0  0  0  0  0  0  0  0
    2.1746   -4.7064    0.0000 C   0  0  0  0  0  0  0  0  0  0  0  0
    1.4602   -3.4689    0.0000 C   0  0  0  0  0  0  0  0  0  0  0  0
    0.0312   -0.9939    0.0000 N   0  0  0  0  0  0  0  0  0  0  0  0
   -0.6833   -0.5814    0.0000 C   0  0  0  0  0  0  0  0  0  0  0  0
    1.4602   -1.8189    0.0000 N   0  0  0  0  0  0  0  0  0  0  0  0
   -0.6833    1.8936    0.0000 N   0  0  0  0  0  0  0  0  0  0  0  0
   -0.6833    2.7186    0.0000 C   0  0  0  0  0  0  0  0  0  0  0  0
   -1.3977    3.1311    0.0000 C   0  0  0  0  0  0  0  0  0  0  0  0
   -2.1122    4.3686    0.0000 C   0  0  0  0  0  0  0  0  0  0  0  0
   -2.8267    3.9561    0.0000 C   0  0  0  0  0  0  0  0  0  0  0  0
   -2.1122    2.7186    0.0000 C   0  0  0  0  0  0  0  0  0  0  0  0
    1.4602   -4.2939    0.0000 C   0  0  0  0  0  0  0  0  0  0  0  0
    0.7457    1.8936    0.0000 O   0  0  0  0  0  0  0  0  0  0  0  0
    2.1746   -0.5814    0.0000 O   0  0  0  0  0  0  0  0  0  0  0  0
  1  2  1  0  0  0  0
  1  4  2  0  0  0  0
  1 10  1  0  0  0  0
  2  3  2  0  0  0  0
  3  7  1  0  0  0  0
  3 17  1  0  0  0  0
  4 18  1  0  0  0  0
  5 26  1  0  0  0  0
  6 23  1  0  0  0  0
  7 19  1  0  0  0  0
  7 28  2  0  0  0  0
  8  9  1  0  0  0  0
  8 19  1  0  0  0  0
  9 13  2  0  0  0  0
  9 16  1  0  0  0  0
 10 20  1  0  0  0  0
 10 27  2  0  0  0  0
 11 22  1  0  0  0  0
 11 23  2  0  0  0  0
 12 24  2  0  0  0  0
 12 25  1  0  0  0  0
 13 14  1  0  0  0  0
 14 15  2  0  0  0  0
 15 26  1  0  0  0  0
 16 26  2  0  0  0  0
 17 18  2  0  0  0  0
 20 21  1  0  0  0  0
 21 22  1  0  0  0  0
 22 25  2  0  0  0  0
 23 24  1  0  0  0  0
M  END
>  <DATABASE_ID>
DB04759

>  <DATABASE_NAME>
drugbank

>  <SMILES>
CC1=CC(CNC(=O)C2=CC(=NC=N2)C(=O)NCC2=CC=CC(C)=C2)=CC=C1

>  <INCHI_IDENTIFIER>
InChI=1S/C22H22N4O2/c1-15-5-3-7-17(9-15)12-23-21(27)19-11-20(26-14-25-19)22(28)24-13-18-8-4-6-16(2)10-18/h3-11,14H,12-13H2,1-2H3,(H,23,27)(H,24,28)

>  <INCHI_KEY>
GTBUZLPQANSGGE-UHFFFAOYSA-N

>  <FORMULA>
C22H22N4O2

>  <MOLECULAR_WEIGHT>
374.4357

>  <EXACT_MASS>
374.174275968

>  <JCHEM_ACCEPTOR_COUNT>
4

>  <JCHEM_ATOM_COUNT>
50

>  <JCHEM_AVERAGE_NEUTRAL_MICROSPECIES_CHARGE>
-8.806290121035166e-07

>  <JCHEM_AVERAGE_POLARIZABILITY>
41.81441788051208

>  <JCHEM_BIOAVAILABILITY>
1

>  <JCHEM_DONOR_COUNT>
2

>  <JCHEM_FORMAL_CHARGE>
0

>  <JCHEM_GHOSE_FILTER>
1

>  <JCHEM_IUPAC>
N4,N6-bis[(3-methylphenyl)methyl]pyrimidine-4,6-dicarboxamide

>  <ALOGPS_LOGP>
1.97

>  <JCHEM_LOGP>
3.445857840666667

>  <ALOGPS_LOGS>
-4.70

>  <JCHEM_MDDR_LIKE_RULE>
1

>  <JCHEM_NEUTRAL_CHARGE>
0

>  <JCHEM_NUMBER_OF_RINGS>
3

>  <JCHEM_PHYSIOLOGICAL_CHARGE>
0

>  <JCHEM_PKA>
14.099404551088417

>  <JCHEM_PKA_STRONGEST_ACIDIC>
13.093821370437741

>  <JCHEM_PKA_STRONGEST_BASIC>
-1.3195712101988941

>  <JCHEM_POLAR_SURFACE_AREA>
83.97999999999999

>  <JCHEM_REFRACTIVITY>
109.2361

>  <JCHEM_ROTATABLE_BOND_COUNT>
6

>  <JCHEM_RULE_OF_FIVE>
1

>  <ALOGPS_SOLUBILITY>
7.51e-03 g/l

>  <JCHEM_TRADITIONAL_IUPAC>
biotin

>  <JCHEM_VEBER_RULE>
0

>  <DRUGBANK_ID>
DB04759

>  <DRUG_GROUPS>
experimental

>  <GENERIC_NAME>
PYRIMIDINE-4,6-DICARBOXYLIC ACID BIS-(3-METHYL-BENZYLAMIDE)

$$$$

 OpenBabel05042401512D

 44 45  0  0  1  0  0  0  0  0999 V2000
    4.7902   -1.2696    0.0000 C   0  0  0  0  0  0  0  0  0  0  0  0
    5.5601   -1.5660    0.0000 C   0  0  0  0  0  0  0  0  0  0  0  0
    6.2017   -1.0474    0.0000 O   0  0  0  0  0  0  0  0  0  0  0  0
    6.9717   -1.3437    0.0000 C   0  0  0  0  0  0  0  0  0  0  0  0
    7.1000   -2.1587    0.0000 O   0  0  0  0  0  0  0  0  0  0  0  0
    7.6133   -0.8251    0.0000 C   0  0  0  0  0  0  0  0  0  0  0  0
    8.3832   -1.1214    0.0000 C   0  0  0  0  0  0  0  0  0  0  0  0
    9.0248   -0.6028    0.0000 C   0  0  2  0  0  0  0  0  0  0  0  0
    8.8965    0.2121    0.0000 C   0  0  0  0  0  0  0  0  0  0  0  0
    8.1266    0.5085    0.0000 C   0  0  2  0  0  0  0  0  0  0  0  0
    7.4342    0.0598    0.0000 C   0  0  0  0  0  0  0  0  0  0  0  0
    6.7936    0.5795    0.0000 C   0  0  0  0  0  0  0  0  0  0  0  0
    7.0899    1.3495    0.0000 N   0  0  0  0  0  0  0  0  0  0  0  0
    7.9138    1.3056    0.0000 C   0  0  0  0  0  0  0  0  0  0  0  0
    8.4335    1.9462    0.0000 O   0  0  0  0  0  0  0  0  0  0  0  0
    9.7948   -0.8992    0.0000 N   0  0  0  0  0  0  0  0  0  0  0  0
   10.4364   -0.3806    0.0000 C   0  0  0  0  0  0  0  0  0  0  0  0
   10.3080    0.4344    0.0000 O   0  0  0  0  0  0  0  0  0  0  0  0
   11.2063   -0.6769    0.0000 C   0  0  2  0  0  0  0  0  0  0  0  0
   11.3346   -1.4919    0.0000 C   0  0  0  0  0  0  0  0  0  0  0  0
   10.6930   -2.0105    0.0000 C   0  0  0  0  0  0  0  0  0  0  0  0
   10.8213   -2.8254    0.0000 C   0  0  0  0  0  0  0  0  0  0  0  0
    9.9231   -1.7141    0.0000 C   0  0  0  0  0  0  0  0  0  0  0  0
   11.8479   -0.1583    0.0000 N   0  0  0  0  0  0  0  0  0  0  0  0
   12.6179   -0.4547    0.0000 C   0  0  0  0  0  0  0  0  0  0  0  0
   12.7462   -1.2696    0.0000 O   0  0  0  0  0  0  0  0  0  0  0  0
   13.2595    0.0640    0.0000 C   0  0  1  0  0  0  0  0  0  0  0  0
   14.0294   -0.2324    0.0000 N   0  0  0  0  0  0  0  0  0  0  0  0
   14.6710    0.2862    0.0000 C   0  0  0  0  0  0  0  0  0  0  0  0
   14.5427    1.1012    0.0000 O   0  0  0  0  0  0  0  0  0  0  0  0
   15.4410   -0.0101    0.0000 C   0  0  2  0  0  0  0  0  0  0  0  0
   15.5693   -0.8251    0.0000 C   0  0  0  0  0  0  0  0  0  0  0  0
   16.0826    0.5085    0.0000 N   0  0  0  0  0  0  0  0  0  0  0  0
   16.8525    0.2121    0.0000 C   0  0  0  0  0  0  0  0  0  0  0  0
   17.4941    0.7307    0.0000 O   0  0  0  0  0  0  0  0  0  0  0  0
   16.9808   -0.6028    0.0000 C   0  0  0  0  0  0  0  0  0  0  0  0
   17.7156   -0.9780    0.0000 N   0  0  0  0  0  0  0  0  0  0  0  0
   17.5858   -1.7928    0.0000 O   0  0  0  0  0  0  0  0  0  0  0  0
   16.7708   -1.9211    0.0000 C   0  0  0  0  0  0  0  0  0  0  0  0
   16.3956   -2.6558    0.0000 C   0  0  0  0  0  0  0  0  0  0  0  0
   16.3969   -1.1857    0.0000 C   0  0  0  0  0  0  0  0  0  0  0  0
   13.1311    0.8789    0.0000 C   0  0  0  0  0  0  0  0  0  0  0  0
   13.7728    1.3975    0.0000 C   0  0  0  0  0  0  0  0  0  0  0  0
   12.3612    1.1753    0.0000 C   0  0  0  0  0  0  0  0  0  0  0  0
  1  2  1  0  0  0  0
  2  3  1  0  0  0  0
  3  4  1  0  0  0  0
  4  5  2  0  0  0  0
  4  6  1  0  0  0  0
  6  7  2  0  0  0  0
  8  7  1  6  0  0  0
  8  9  1  0  0  0  0
  8 16  1  0  0  0  0
 10  9  1  6  0  0  0
 10 11  1  0  0  0  0
 10 14  1  0  0  0  0
 11 12  1  0  0  0  0
 12 13  1  0  0  0  0
 13 14  1  0  0  0  0
 14 15  2  0  0  0  0
 16 17  1  0  0  0  0
 17 18  2  0  0  0  0
 19 17  1  1  0  0  0
 19 20  1  0  0  0  0
 19 24  1  0  0  0  0
 20 21  1  0  0  0  0
 21 22  1  0  0  0  0
 21 23  1  0  0  0  0
 24 25  1  0  0  0  0
 25 26  2  0  0  0  0
 27 25  1  6  0  0  0
 27 28  1  0  0  0  0
 27 42  1  0  0  0  0
 28 29  1  0  0  0  0
 29 30  2  0  0  0  0
 31 29  1  1  0  0  0
 31 32  1  0  0  0  0
 31 33  1  0  0  0  0
 33 34  1  0  0  0  0
 34 35  2  0  0  0  0
 34 36  1  0  0  0  0
 36 37  2  0  0  0  0
 36 41  1  0  0  0  0
 37 38  1  0  0  0  0
 38 39  1  0  0  0  0
 39 40  1  0  0  0  0
 39 41  2  0  0  0  0
 42 43  1  0  0  0  0
 42 44  1  0  0  0  0
M  END
>  <DATABASE_ID>
DB04710

>  <DATABASE_NAME>
drugbank

>  <SMILES>
CCOC(=O)\C=C\[C@H](C[C@@H]1CCNC1=O)NC(=O)[C@H](CC(C)C)NC(=O)[C@H](C(C)C)NC(=O)[C@H](C)NC(=O)C1=NOC(C)=C1

>  <INCHI_IDENTIFIER>
InChI=1S/C30H46N6O8/c1-8-43-24(37)10-9-21(15-20-11-12-31-27(20)39)33-28(40)22(13-16(2)3)34-30(42)25(17(4)5)35-26(38)19(7)32-29(41)23-14-18(6)44-36-23/h9-10,14,16-17,19-22,25H,8,11-13,15H2,1-7H3,(H,31,39)(H,32,41)(H,33,40)(H,34,42)(H,35,38)/b10-9+/t19-,20-,21+,22-,25-/m0/s1

>  <INCHI_KEY>
LIVSSCDUYUOZEL-GLXPMXKMSA-N

>  <FORMULA>
C30H46N6O8

>  <MOLECULAR_WEIGHT>
618.7216

>  <EXACT_MASS>
618.337712478

>  <JCHEM_ACCEPTOR_COUNT>
7

>  <JCHEM_ATOM_COUNT>
90

>  <JCHEM_AVERAGE_NEUTRAL_MICROSPECIES_CHARGE>
-2.6992044774887718e-05

>  <JCHEM_AVERAGE_POLARIZABILITY>
65.69573109081034

>  <JCHEM_BIOAVAILABILITY>
0

>  <JCHEM_DONOR_COUNT>
5

>  <JCHEM_FORMAL_CHARGE>
0

>  <JCHEM_GHOSE_FILTER>
0

>  <JCHEM_IUPAC>
ethyl (2E,4S)-4-[(2S)-4-methyl-2-[(2S)-3-methyl-2-[(2S)-2-[(5-methyl-1,2-oxazol-3-yl)formamido]propanamido]butanamido]pentanamido]-5-[(3S)-2-oxopyrrolidin-3-yl]pent-2-enoate

>  <ALOGPS_LOGP>
1.35

>  <JCHEM_LOGP>
0.9726023203333336

>  <ALOGPS_LOGS>
-3.92

>  <JCHEM_MDDR_LIKE_RULE>
0

>  <JCHEM_NEUTRAL_CHARGE>
0

>  <JCHEM_NUMBER_OF_RINGS>
2

>  <JCHEM_PHYSIOLOGICAL_CHARGE>
0

>  <JCHEM_PKA>
12.430025880094774

>  <JCHEM_PKA_STRONGEST_ACIDIC>
11.707799918678102

>  <JCHEM_PKA_STRONGEST_BASIC>
-1.2224238301993047

>  <JCHEM_POLAR_SURFACE_AREA>
197.82999999999998

>  <JCHEM_REFRACTIVITY>
161.5812

>  <JCHEM_ROTATABLE_BOND_COUNT>
17

>  <JCHEM_RULE_OF_FIVE>
0

>  <ALOGPS_SOLUBILITY>
7.44e-02 g/l

>  <JCHEM_TRADITIONAL_IUPAC>
tetrahydrofolic acid

>  <JCHEM_VEBER_RULE>
0

>  <DRUGBANK_ID>
DB04710

>  <DRUG_GROUPS>
experimental

>  <GENERIC_NAME>
(E)-(S)-4-[(S)-4-METHYL-2-((S)-3-METHYL-2{(S)-2-[(5-METHYL-ISOXAZOLE-3- CARBONYL)-AMINO]-PROPIONYLAMINO}-BUTYRYLAMINO)-PENTANOYLAMINO]-5-((S)-2- OXO-PYRROLIDIN-3-YL)-PENT-2-ENOIC ACID ETHYL ESTER

$$$$

 OpenBabel05042401512D

 61 61  0  0  1  0  0  0  0  0999 V2000
    1.7862    0.7396    0.0000 C   0  0  0  0  0  0  0  0  0  0  0  0
    1.0717    1.1521    0.0000 C   0  0  0  0  0  0  0  0  0  0  0  0
    2.5006    1.1521    0.0000 C   0  0  2  0  0  0  0  0  0  0  0  0
    0.3572    0.7396    0.0000 C   0  0  0  0  0  0  0  0  0  0  0  0
    3.2151    0.7396    0.0000 C   0  0  2  0  0  0  0  0  0  0  0  0
   -0.3572    1.1521    0.0000 C   0  0  0  0  0  0  0  0  0  0  0  0
    3.9296    1.1521    0.0000 C   0  0  0  0  0  0  0  0  0  0  0  0
   -1.0716    0.7396    0.0000 C   0  0  0  0  0  0  0  0  0  0  0  0
   -1.7861    1.1521    0.0000 C   0  0  0  0  0  0  0  0  0  0  0  0
   -2.5006    0.7396    0.0000 C   0  0  0  0  0  0  0  0  0  0  0  0
   -3.2150    1.1521    0.0000 C   0  0  0  0  0  0  0  0  0  0  0  0
   -3.9295    0.7396    0.0000 C   0  0  0  0  0  0  0  0  0  0  0  0
   -4.6440    1.1521    0.0000 C   0  0  0  0  0  0  0  0  0  0  0  0
   -5.3585    0.7396    0.0000 C   0  0  0  0  0  0  0  0  0  0  0  0
   -6.0729    1.1521    0.0000 C   0  0  0  0  0  0  0  0  0  0  0  0
   -6.7874    0.7396    0.0000 C   0  0  0  0  0  0  0  0  0  0  0  0
   -7.5019    1.1521    0.0000 C   0  0  0  0  0  0  0  0  0  0  0  0
   -8.2163    0.7396    0.0000 C   0  0  0  0  0  0  0  0  0  0  0  0
    2.5006    1.9772    0.0000 O   0  0  0  0  0  0  0  0  0  0  0  0
    3.2152   -0.0853    0.0000 N   0  0  0  0  0  0  0  0  0  0  0  0
    1.7863   -0.0856    0.0000 C   0  0  0  0  0  0  0  0  0  0  0  0
    2.5008   -0.4980    0.0000 C   0  0  0  0  0  0  0  0  0  0  0  0
    2.5010   -1.3230    0.0000 O   0  0  0  0  0  0  0  0  0  0  0  0
    6.0729    2.3896    0.0000 C   0  0  2  0  0  0  0  0  0  0  0  0
    5.3585    1.9772    0.0000 C   0  0  2  0  0  0  0  0  0  0  0  0
    5.3585    1.1521    0.0000 C   0  0  1  0  0  0  0  0  0  0  0  0
    6.0729    0.7396    0.0000 O   0  0  0  0  0  0  0  0  0  0  0  0
    6.7874    1.1521    0.0000 C   0  0  1  0  0  0  0  0  0  0  0  0
    6.7874    1.9772    0.0000 C   0  0  2  0  0  0  0  0  0  0  0  0
    7.5019    0.7396    0.0000 C   0  0  0  0  0  0  0  0  0  0  0  0
    7.5019    2.3896    0.0000 O   0  0  0  0  0  0  0  0  0  0  0  0
    6.0729    3.2146    0.0000 O   0  0  0  0  0  0  0  0  0  0  0  0
    4.6440    2.3896    0.0000 O   0  0  0  0  0  0  0  0  0  0  0  0
    4.6440    0.7396    0.0000 O   0  0  0  0  0  0  0  0  0  0  0  0
    8.2163    1.1521    0.0000 O   0  0  0  0  0  0  0  0  0  0  0  0
    6.7874    3.6271    0.0000 S   0  0  0  0  0  0  0  0  0  0  0  0
    7.5018    3.2146    0.0000 O   0  0  0  0  0  0  0  0  0  0  0  0
    7.3707    4.2105    0.0000 O   0  0  0  0  0  0  0  0  0  0  0  0
    6.2040    4.2105    0.0000 O   0  0  0  0  0  0  0  0  0  0  0  0
    1.0718   -0.4981    0.0000 C   0  0  0  0  0  0  0  0  0  0  0  0
    0.3574   -0.0856    0.0000 C   0  0  0  0  0  0  0  0  0  0  0  0
   -0.3570   -0.4981    0.0000 C   0  0  0  0  0  0  0  0  0  0  0  0
   -1.0715   -0.0856    0.0000 C   0  0  0  0  0  0  0  0  0  0  0  0
   -1.7860   -0.4981    0.0000 C   0  0  0  0  0  0  0  0  0  0  0  0
   -2.5004   -0.0856    0.0000 C   0  0  0  0  0  0  0  0  0  0  0  0
   -3.2149   -0.4981    0.0000 C   0  0  0  0  0  0  0  0  0  0  0  0
   -3.9294   -0.0856    0.0000 C   0  0  0  0  0  0  0  0  0  0  0  0
   -4.6438   -0.4981    0.0000 C   0  0  0  0  0  0  0  0  0  0  0  0
   -5.3583   -0.0856    0.0000 C   0  0  0  0  0  0  0  0  0  0  0  0
   -6.0728   -0.4981    0.0000 C   0  0  0  0  0  0  0  0  0  0  0  0
   -6.0728   -1.3231    0.0000 C   0  0  0  0  0  0  0  0  0  0  0  0
   -5.3583   -1.7356    0.0000 C   0  0  0  0  0  0  0  0  0  0  0  0
   -5.3583   -2.5606    0.0000 C   0  0  0  0  0  0  0  0  0  0  0  0
   -6.0728   -2.9731    0.0000 C   0  0  0  0  0  0  0  0  0  0  0  0
   -6.0728   -3.7981    0.0000 C   0  0  0  0  0  0  0  0  0  0  0  0
   -5.3583   -4.2106    0.0000 C   0  0  0  0  0  0  0  0  0  0  0  0
   -4.6438   -3.7981    0.0000 C   0  0  0  0  0  0  0  0  0  0  0  0
   -3.9294   -4.2106    0.0000 C   0  0  0  0  0  0  0  0  0  0  0  0
   -3.2149   -3.7981    0.0000 C   0  0  0  0  0  0  0  0  0  0  0  0
   -2.5004   -4.2106    0.0000 C   0  0  0  0  0  0  0  0  0  0  0  0
   -1.7860   -3.7981    0.0000 C   0  0  0  0  0  0  0  0  0  0  0  0
  1  2  2  0  0  0  0
  2  4  1  0  0  0  0
  3  1  1  1  0  0  0
  3 19  1  0  0  0  0
  3  5  1  0  0  0  0
  4  6  1  0  0  0  0
  5 20  1  6  0  0  0
  5  7  1  0  0  0  0
  6  8  1  0  0  0  0
  7 34  1  0  0  0  0
  8  9  1  0  0  0  0
  9 10  1  0  0  0  0
 10 11  1  0  0  0  0
 11 12  1  0  0  0  0
 12 13  1  0  0  0  0
 13 14  1  0  0  0  0
 14 15  1  0  0  0  0
 15 16  1  0  0  0  0
 16 17  1  0  0  0  0
 17 18  1  0  0  0  0
 20 22  1  0  0  0  0
 21 40  1  0  0  0  0
 22 21  1  0  0  0  0
 22 23  2  0  0  0  0
 24 25  1  0  0  0  0
 24 29  1  0  0  0  0
 24 32  1  1  0  0  0
 25 26  1  0  0  0  0
 25 33  1  6  0  0  0
 26 27  1  0  0  0  0
 26 34  1  1  0  0  0
 27 28  1  0  0  0  0
 28 29  1  0  0  0  0
 28 30  1  1  0  0  0
 29 31  1  1  0  0  0
 30 35  1  0  0  0  0
 32 36  1  0  0  0  0
 36 37  1  0  0  0  0
 36 38  2  0  0  0  0
 36 39  2  0  0  0  0
 40 41  1  0  0  0  0
 41 42  1  0  0  0  0
 42 43  1  0  0  0  0
 43 44  1  0  0  0  0
 44 45  1  0  0  0  0
 45 46  1  0  0  0  0
 46 47  1  0  0  0  0
 47 48  1  0  0  0  0
 48 49  1  0  0  0  0
 49 50  1  0  0  0  0
 50 51  1  0  0  0  0
 51 52  1  0  0  0  0
 52 53  2  0  0  0  0
 53 54  1  0  0  0  0
 54 55  1  0  0  0  0
 55 56  1  0  0  0  0
 56 57  1  0  0  0  0
 57 58  1  0  0  0  0
 58 59  1  0  0  0  0
 59 60  1  0  0  0  0
 60 61  1  0  0  0  0
M  END
>  <DATABASE_ID>
DB04661

>  <DATABASE_NAME>
drugbank

>  <SMILES>
CCCCCCCCCCCCC\C=C\[C@@H](O)[C@H](CO[C@@H]1O[C@H](CO)[C@H](O)[C@H](OS(O)(=O)=O)[C@H]1O)NC(=O)CCCCCCCCCCCCC\C=C/CCCCCCCC

>  <INCHI_IDENTIFIER>
InChI=1S/C48H91NO11S/c1-3-5-7-9-11-13-15-17-18-19-20-21-22-23-24-26-28-30-32-34-36-38-44(52)49-41(42(51)37-35-33-31-29-27-25-16-14-12-10-8-6-4-2)40-58-48-46(54)47(60-61(55,56)57)45(53)43(39-50)59-48/h17-18,35,37,41-43,45-48,50-51,53-54H,3-16,19-34,36,38-40H2,1-2H3,(H,49,52)(H,55,56,57)/b18-17-,37-35+/t41-,42+,43+,45-,46+,47-,48+/m0/s1

>  <INCHI_KEY>
ZZQWQNAZXFNSEP-JCOQVFCVSA-N

>  <FORMULA>
C48H91NO11S

>  <MOLECULAR_WEIGHT>
890.301

>  <EXACT_MASS>
889.631283449

>  <JCHEM_ACCEPTOR_COUNT>
10

>  <JCHEM_ATOM_COUNT>
152

>  <JCHEM_AVERAGE_POLARIZABILITY>
109.48594936475018

>  <JCHEM_BIOAVAILABILITY>
0

>  <JCHEM_DONOR_COUNT>
6

>  <JCHEM_FORMAL_CHARGE>
0

>  <JCHEM_GHOSE_FILTER>
0

>  <JCHEM_IUPAC>
[(2R,3R,4S,5S,6R)-3,5-dihydroxy-2-{[(2S,3R,4E)-3-hydroxy-2-[(15Z)-tetracos-15-enamido]octadec-4-en-1-yl]oxy}-6-(hydroxymethyl)oxan-4-yl]oxidanesulfonic acid

>  <ALOGPS_LOGP>
5.95

>  <JCHEM_LOGP>
10.564914917610293

>  <ALOGPS_LOGS>
-6.52

>  <JCHEM_MDDR_LIKE_RULE>
0

>  <JCHEM_NUMBER_OF_RINGS>
1

>  <JCHEM_PHYSIOLOGICAL_CHARGE>
-1

>  <JCHEM_PKA>
12.18939610615506

>  <JCHEM_PKA_STRONGEST_ACIDIC>
-1.9115901925718546

>  <JCHEM_PKA_STRONGEST_BASIC>
-0.9850048448833624

>  <JCHEM_POLAR_SURFACE_AREA>
192.07999999999998

>  <JCHEM_REFRACTIVITY>
246.1054

>  <JCHEM_ROTATABLE_BOND_COUNT>
42

>  <JCHEM_RULE_OF_FIVE>
0

>  <ALOGPS_SOLUBILITY>
2.72e-04 g/l

>  <JCHEM_TRADITIONAL_IUPAC>
cis-tetracosenoyl sulfatide

>  <JCHEM_VEBER_RULE>
0

>  <DRUGBANK_ID>
DB04661

>  <DRUG_GROUPS>
experimental

>  <GENERIC_NAME>
cis-tetracosenoyl sulfatide

>  <SYNONYMS>
1-(3-O-sulfo-beta-D-galactosyl)-N-[(15Z)-tetracos-15-enoyl]sphingosine; C24:1 Sulfatide

$$$$

 OpenBabel05042401512D

 49 51  0  0  1  0  0  0  0  0999 V2000
   13.3597   -9.2112    0.0000 C   0  0  0  0  0  0  0  0  0  0  0  0
   12.5897   -8.9149    0.0000 C   0  0  0  0  0  0  0  0  0  0  0  0
   12.4614   -8.0999    0.0000 C   0  0  0  0  0  0  0  0  0  0  0  0
   11.9481   -9.4335    0.0000 C   0  0  0  0  0  0  0  0  0  0  0  0
   12.0764  -10.2485    0.0000 C   0  0  2  0  0  0  0  0  0  0  0  0
   11.4348  -10.7671    0.0000 N   0  0  0  0  0  0  0  0  0  0  0  0
   10.6649  -10.4707    0.0000 C   0  0  0  0  0  0  0  0  0  0  0  0
   10.5366   -9.6558    0.0000 O   0  0  0  0  0  0  0  0  0  0  0  0
   10.0233  -10.9893    0.0000 C   0  0  1  0  0  0  0  0  0  0  0  0
    9.2533  -10.6930    0.0000 N   0  0  0  0  0  0  0  0  0  0  0  0
    8.6117  -11.2116    0.0000 C   0  0  0  0  0  0  0  0  0  0  0  0
    8.7400  -12.0265    0.0000 O   0  0  0  0  0  0  0  0  0  0  0  0
    7.8418  -10.9152    0.0000 C   0  0  2  0  0  0  0  0  0  0  0  0
    7.7135  -10.1003    0.0000 C   0  0  0  0  0  0  0  0  0  0  0  0
    7.2002  -11.4338    0.0000 N   0  0  0  0  0  0  0  0  0  0  0  0
    6.4302  -11.1375    0.0000 C   0  0  0  0  0  0  0  0  0  0  0  0
    5.7886  -11.6561    0.0000 O   0  0  0  0  0  0  0  0  0  0  0  0
    6.3019  -10.3225    0.0000 C   0  0  0  0  0  0  0  0  0  0  0  0
    5.5672   -9.9473    0.0000 N   0  0  0  0  0  0  0  0  0  0  0  0
    5.6970   -9.1326    0.0000 O   0  0  0  0  0  0  0  0  0  0  0  0
    6.5119   -9.0043    0.0000 C   0  0  0  0  0  0  0  0  0  0  0  0
    6.8871   -8.2695    0.0000 C   0  0  0  0  0  0  0  0  0  0  0  0
    6.8858   -9.7397    0.0000 C   0  0  0  0  0  0  0  0  0  0  0  0
   10.1516  -11.8043    0.0000 C   0  0  0  0  0  0  0  0  0  0  0  0
    9.5100  -12.3229    0.0000 C   0  0  0  0  0  0  0  0  0  0  0  0
   10.9215  -12.1006    0.0000 C   0  0  0  0  0  0  0  0  0  0  0  0
   12.8464  -10.5448    0.0000 C   0  0  0  0  0  0  0  0  0  0  0  0
   12.9747  -11.3598    0.0000 O   0  0  0  0  0  0  0  0  0  0  0  0
   13.4880  -10.0262    0.0000 N   0  0  0  0  0  0  0  0  0  0  0  0
   14.2579  -10.3225    0.0000 C   0  0  1  0  0  0  0  0  0  0  0  0
   14.3863  -11.1375    0.0000 C   0  0  0  0  0  0  0  0  0  0  0  0
   15.1562  -11.4338    0.0000 C   0  0  2  0  0  0  0  0  0  0  0  0
   15.8485  -10.9851    0.0000 C   0  0  0  0  0  0  0  0  0  0  0  0
   16.4892  -11.5049    0.0000 C   0  0  0  0  0  0  0  0  0  0  0  0
   16.1928  -12.2749    0.0000 N   0  0  0  0  0  0  0  0  0  0  0  0
   15.3690  -12.2309    0.0000 C   0  0  0  0  0  0  0  0  0  0  0  0
   14.8492  -12.8716    0.0000 O   0  0  0  0  0  0  0  0  0  0  0  0
   14.8995   -9.8039    0.0000 C   0  0  0  0  0  0  0  0  0  0  0  0
   15.6695  -10.1003    0.0000 C   0  0  0  0  0  0  0  0  0  0  0  0
   16.3111   -9.5817    0.0000 C   0  0  0  0  0  0  0  0  0  0  0  0
   16.1828   -8.7667    0.0000 O   0  0  0  0  0  0  0  0  0  0  0  0
   17.0810   -9.8780    0.0000 O   0  0  0  0  0  0  0  0  0  0  0  0
   17.7226   -9.3594    0.0000 C   0  0  0  0  0  0  0  0  0  0  0  0
   18.4926   -9.6558    0.0000 C   0  0  0  0  0  0  0  0  0  0  0  0
   19.1342   -9.1371    0.0000 C   0  0  0  0  0  0  0  0  0  0  0  0
   19.9041   -9.4335    0.0000 C   0  0  0  0  0  0  0  0  0  0  0  0
   20.0325  -10.2485    0.0000 C   0  0  0  0  0  0  0  0  0  0  0  0
   19.3908  -10.7671    0.0000 C   0  0  0  0  0  0  0  0  0  0  0  0
   18.6209  -10.4707    0.0000 C   0  0  0  0  0  0  0  0  0  0  0  0
  1  2  1  0  0  0  0
  2  3  1  0  0  0  0
  2  4  1  0  0  0  0
  5  4  1  1  0  0  0
  5  6  1  0  0  0  0
  5 27  1  0  0  0  0
  6  7  1  0  0  0  0
  7  8  2  0  0  0  0
  9  7  1  6  0  0  0
  9 10  1  0  0  0  0
  9 24  1  0  0  0  0
 10 11  1  0  0  0  0
 11 12  2  0  0  0  0
 13 11  1  1  0  0  0
 13 14  1  0  0  0  0
 13 15  1  0  0  0  0
 15 16  1  0  0  0  0
 16 17  2  0  0  0  0
 16 18  1  0  0  0  0
 18 19  2  0  0  0  0
 18 23  1  0  0  0  0
 19 20  1  0  0  0  0
 20 21  1  0  0  0  0
 21 22  1  0  0  0  0
 21 23  2  0  0  0  0
 24 25  1  0  0  0  0
 24 26  1  0  0  0  0
 27 28  2  0  0  0  0
 27 29  1  0  0  0  0
 30 29  1  6  0  0  0
 30 31  1  0  0  0  0
 30 38  1  0  0  0  0
 32 31  1  6  0  0  0
 32 33  1  0  0  0  0
 32 36  1  0  0  0  0
 33 34  1  0  0  0  0
 34 35  1  0  0  0  0
 35 36  1  0  0  0  0
 36 37  2  0  0  0  0
 38 39  2  0  0  0  0
 39 40  1  0  0  0  0
 40 41  2  0  0  0  0
 40 42  1  0  0  0  0
 42 43  1  0  0  0  0
 43 44  1  0  0  0  0
 44 45  2  0  0  0  0
 44 49  1  0  0  0  0
 45 46  1  0  0  0  0
 46 47  2  0  0  0  0
 47 48  1  0  0  0  0
 48 49  2  0  0  0  0
M  END
>  <DATABASE_ID>
DB04595

>  <DATABASE_NAME>
drugbank

>  <SMILES>
CC(C)C[C@H](NC(=O)[C@H](C(C)C)NC(=O)[C@H](C)NC(=O)C1=NOC(C)=C1)C(=O)N[C@H](\C=C\C(=O)OCC1=CC=CC=C1)C[C@@H]1CCNC1=O

>  <INCHI_IDENTIFIER>
InChI=1S/C35H48N6O8/c1-20(2)16-27(39-35(47)30(21(3)4)40-31(43)23(6)37-34(46)28-17-22(5)49-41-28)33(45)38-26(18-25-14-15-36-32(25)44)12-13-29(42)48-19-24-10-8-7-9-11-24/h7-13,17,20-21,23,25-27,30H,14-16,18-19H2,1-6H3,(H,36,44)(H,37,46)(H,38,45)(H,39,47)(H,40,43)/b13-12+/t23-,25-,26+,27-,30-/m0/s1

>  <INCHI_KEY>
IDBWWEGDLCFCTD-VNEMRZQUSA-N

>  <FORMULA>
C35H48N6O8

>  <MOLECULAR_WEIGHT>
680.791

>  <EXACT_MASS>
680.353362542

>  <JCHEM_ACCEPTOR_COUNT>
7

>  <JCHEM_ATOM_COUNT>
97

>  <JCHEM_AVERAGE_NEUTRAL_MICROSPECIES_CHARGE>
-2.6853951829455404e-05

>  <JCHEM_AVERAGE_POLARIZABILITY>
72.40522523438898

>  <JCHEM_BIOAVAILABILITY>
0

>  <JCHEM_DONOR_COUNT>
5

>  <JCHEM_FORMAL_CHARGE>
0

>  <JCHEM_GHOSE_FILTER>
0

>  <JCHEM_IUPAC>
benzyl (2E,4S)-4-[(2S)-4-methyl-2-[(2S)-3-methyl-2-[(2S)-2-[(5-methyl-1,2-oxazol-3-yl)formamido]propanamido]butanamido]pentanamido]-5-[(3S)-2-oxopyrrolidin-3-yl]pent-2-enoate

>  <ALOGPS_LOGP>
2.21

>  <JCHEM_LOGP>
2.340267483

>  <ALOGPS_LOGS>
-4.24

>  <JCHEM_MDDR_LIKE_RULE>
1

>  <JCHEM_NEUTRAL_CHARGE>
0

>  <JCHEM_NUMBER_OF_RINGS>
3

>  <JCHEM_PHYSIOLOGICAL_CHARGE>
0

>  <JCHEM_PKA>
12.43184943442317

>  <JCHEM_PKA_STRONGEST_ACIDIC>
11.710732863711488

>  <JCHEM_PKA_STRONGEST_BASIC>
-1.2224238302108306

>  <JCHEM_POLAR_SURFACE_AREA>
197.82999999999998

>  <JCHEM_REFRACTIVITY>
181.4452

>  <JCHEM_ROTATABLE_BOND_COUNT>
18

>  <JCHEM_RULE_OF_FIVE>
0

>  <ALOGPS_SOLUBILITY>
3.93e-02 g/l

>  <JCHEM_TRADITIONAL_IUPAC>
tetrahydrofolic acid

>  <JCHEM_VEBER_RULE>
0

>  <DRUGBANK_ID>
DB04595

>  <DRUG_GROUPS>
experimental

>  <GENERIC_NAME>
(E)-(4S,6S)-8-METHYL-6-((S)-3-METHYL-2-{(S)-2-[(5-METHYL-ISOXAZOLE-3-CARBONYL)-AMINO]-PROPIONYLAMINO}-BUTYRYLAMINO)-5-OXO-4-((R)-2-OXO-PYRROLIDIN-3-YLMETHYL)-NON-2-ENOIC ACID BENZYL ESTER

$$$$
382
 OpenBabel05042401512D

 33 37  0  0  1  0  0  0  0  0999 V2000
    2.2841   -3.5613    0.0000 C   0  0  0  0  0  0  0  0  0  0  0  0
    1.5697   -3.1488    0.0000 C   0  0  0  0  0  0  0  0  0  0  0  0
    1.5697   -2.3238    0.0000 N   0  0  0  0  0  0  0  0  0  0  0  0
    2.2841   -1.9113    0.0000 C   0  0  2  0  0  0  0  0  0  0  0  0
    2.9986   -2.3238    0.0000 C   0  0  0  0  0  0  0  0  0  0  0  0
    2.9986   -3.1488    0.0000 C   0  0  0  0  0  0  0  0  0  0  0  0
    2.2841   -1.0863    0.0000 C   0  0  0  0  0  0  0  0  0  0  0  0
    3.1091   -1.0863    0.0000 F   0  0  0  0  0  0  0  0  0  0  0  0
    1.4591   -1.0863    0.0000 F   0  0  0  0  0  0  0  0  0  0  0  0
    2.2841   -0.2613    0.0000 C   0  0  0  0  0  0  0  0  0  0  0  0
    1.5697    0.1512    0.0000 N   0  0  0  0  0  0  0  0  0  0  0  0
    1.5697    0.9762    0.0000 C   0  0  0  0  0  0  0  0  0  0  0  0
    0.8552    1.3887    0.0000 C   0  0  0  0  0  0  0  0  0  0  0  0
    0.8552    2.2137    0.0000 C   0  0  0  0  0  0  0  0  0  0  0  0
    1.5697    2.6262    0.0000 C   0  0  0  0  0  0  0  0  0  0  0  0
    2.2841    2.2137    0.0000 C   0  0  0  0  0  0  0  0  0  0  0  0
    2.2841    1.3887    0.0000 N   0  0  0  0  0  0  0  0  0  0  0  0
    0.0706    1.1338    0.0000 N   0  0  0  0  0  0  0  0  0  0  0  0
   -0.4143    1.8012    0.0000 C   0  0  0  0  0  0  0  0  0  0  0  0
    0.0706    2.4687    0.0000 O   0  0  0  0  0  0  0  0  0  0  0  0
   -1.2393    1.8012    0.0000 C   0  0  0  0  0  0  0  0  0  0  0  0
   -1.6518    1.0868    0.0000 C   0  0  0  0  0  0  0  0  0  0  0  0
   -1.2393    0.3723    0.0000 C   0  0  0  0  0  0  0  0  0  0  0  0
   -1.6518   -0.3422    0.0000 C   0  0  0  0  0  0  0  0  0  0  0  0
   -2.4768   -0.3422    0.0000 C   0  0  0  0  0  0  0  0  0  0  0  0
   -2.8893    0.3723    0.0000 C   0  0  0  0  0  0  0  0  0  0  0  0
   -2.4768    1.0868    0.0000 C   0  0  0  0  0  0  0  0  0  0  0  0
   -2.8893    1.8012    0.0000 N   0  0  0  0  0  0  0  0  0  0  0  0
   -3.7098    1.8875    0.0000 N   0  0  0  0  0  0  0  0  0  0  0  0
   -3.8814    2.6944    0.0000 C   0  0  0  0  0  0  0  0  0  0  0  0
   -3.1669    3.1069    0.0000 N   0  0  0  0  0  0  0  0  0  0  0  0
   -2.5538    2.5549    0.0000 C   0  0  0  0  0  0  0  0  0  0  0  0
    1.7784   -1.6193    0.0000 H   0  0  0  0  0  0  0  0  0  0  0  0
  1  2  1  0  0  0  0
  1  6  1  0  0  0  0
  2  3  1  0  0  0  0
  3  4  1  0  0  0  0
  4  5  1  0  0  0  0
  4  7  1  0  0  0  0
  4 33  1  6  0  0  0
  5  6  1  0  0  0  0
  7  8  1  0  0  0  0
  7  9  1  0  0  0  0
  7 10  1  0  0  0  0
 10 11  1  0  0  0  0
 11 12  1  0  0  0  0
 12 13  1  0  0  0  0
 12 17  2  0  0  0  0
 13 14  2  0  0  0  0
 13 18  1  0  0  0  0
 14 15  1  0  0  0  0
 14 20  1  0  0  0  0
 15 16  2  0  0  0  0
 16 17  1  0  0  0  0
 18 19  2  0  0  0  0
 19 20  1  0  0  0  0
 19 21  1  0  0  0  0
 21 22  1  0  0  0  0
 22 23  2  0  0  0  0
 22 27  1  0  0  0  0
 23 24  1  0  0  0  0
 24 25  2  0  0  0  0
 25 26  1  0  0  0  0
 26 27  2  0  0  0  0
 27 28  1  0  0  0  0
 28 29  1  0  0  0  0
 28 32  1  0  0  0  0
 29 30  2  0  0  0  0
 30 31  1  0  0  0  0
 31 32  2  0  0  0  0
M  END
>  <DATABASE_ID>
DB04591

>  <DATABASE_NAME>
drugbank

>  <SMILES>
[H][C@@]1(CCCCN1)C(F)(F)CNC1=NC=CC2=C1N=C(CC1=CC=CC=C1N1C=NC=N1)O2

>  <INCHI_IDENTIFIER>
InChI=1S/C22H23F2N7O/c23-22(24,18-7-3-4-9-26-18)12-28-21-20-17(8-10-27-21)32-19(30-20)11-15-5-1-2-6-16(15)31-14-25-13-29-31/h1-2,5-6,8,10,13-14,18,26H,3-4,7,9,11-12H2,(H,27,28)/t18-/m1/s1

>  <INCHI_KEY>
VYJOAYZRCNHDNG-GOSISDBHSA-N

>  <FORMULA>
C22H23F2N7O

>  <MOLECULAR_WEIGHT>
439.4611

>  <EXACT_MASS>
439.193214803

>  <JCHEM_ACCEPTOR_COUNT>
6

>  <JCHEM_ATOM_COUNT>
55

>  <JCHEM_AVERAGE_NEUTRAL_MICROSPECIES_CHARGE>
0.5344660171888114

>  <JCHEM_AVERAGE_POLARIZABILITY>
44.437720304120866

>  <JCHEM_BIOAVAILABILITY>
1

>  <JCHEM_DONOR_COUNT>
2

>  <JCHEM_FORMAL_CHARGE>
0

>  <JCHEM_GHOSE_FILTER>
1

>  <JCHEM_IUPAC>
N-{2,2-difluoro-2-[(2R)-piperidin-2-yl]ethyl}-2-{[2-(1H-1,2,4-triazol-1-yl)phenyl]methyl}-[1,3]oxazolo[4,5-c]pyridin-4-amine

>  <ALOGPS_LOGP>
2.81

>  <JCHEM_LOGP>
2.7725045529999996

>  <ALOGPS_LOGS>
-3.63

>  <JCHEM_MDDR_LIKE_RULE>
1

>  <JCHEM_NEUTRAL_CHARGE>
1

>  <JCHEM_NUMBER_OF_RINGS>
5

>  <JCHEM_PHYSIOLOGICAL_CHARGE>
0

>  <JCHEM_PKA_STRONGEST_ACIDIC>
14.354412566189444

>  <JCHEM_PKA_STRONGEST_BASIC>
7.058462088150426

>  <JCHEM_POLAR_SURFACE_AREA>
93.69

>  <JCHEM_REFRACTIVITY>
116.9765

>  <JCHEM_ROTATABLE_BOND_COUNT>
7

>  <JCHEM_RULE_OF_FIVE>
1

>  <ALOGPS_SOLUBILITY>
1.03e-01 g/l

>  <JCHEM_TRADITIONAL_IUPAC>
biotin

>  <JCHEM_VEBER_RULE>
0

>  <DRUGBANK_ID>
DB04591

>  <DRUG_GROUPS>
experimental

>  <GENERIC_NAME>
N-{2,2-DIFLUORO-2-[(2R)-PIPERIDIN-2-YL]ETHYL}-2-[2-(1H-1,2,4-TRIAZOL-1-YL)BENZYL][1,3]OXAZOLO[4,5-C]PYRIDIN-4-AMINE

$$$$

 OpenBabel05042401512D

 17 19  0  0  0  0  0  0  0  0999 V2000
    4.0668   -0.1271    0.0000 C   0  0  0  0  0  0  0  0  0  0  0  0
    4.0668    0.6979    0.0000 C   0  0  0  0  0  0  0  0  0  0  0  0
    4.7812    1.1104    0.0000 C   0  0  0  0  0  0  0  0  0  0  0  0
    4.7812    1.9354    0.0000 C   0  0  0  0  0  0  0  0  0  0  0  0
    5.4957    2.3479    0.0000 O   0  0  0  0  0  0  0  0  0  0  0  0
    4.0668    2.3479    0.0000 O   0  0  0  0  0  0  0  0  0  0  0  0
    3.3523    1.9354    0.0000 C   0  0  0  0  0  0  0  0  0  0  0  0
    3.3523    1.1104    0.0000 C   0  0  0  0  0  0  0  0  0  0  0  0
    2.6378    0.6979    0.0000 C   0  0  0  0  0  0  0  0  0  0  0  0
    1.9233    1.1104    0.0000 C   0  0  0  0  0  0  0  0  0  0  0  0
    1.1387    0.8555    0.0000 C   0  0  0  0  0  0  0  0  0  0  0  0
    0.6538    1.5229    0.0000 C   0  0  0  0  0  0  0  0  0  0  0  0
    1.1387    2.1904    0.0000 O   0  0  0  0  0  0  0  0  0  0  0  0
    1.9233    1.9354    0.0000 C   0  0  0  0  0  0  0  0  0  0  0  0
    2.6378    2.3479    0.0000 C   0  0  0  0  0  0  0  0  0  0  0  0
    2.6378    3.1729    0.0000 C   0  0  0  0  0  0  0  0  0  0  0  0
   -0.1712    1.5229    0.0000 C   0  0  0  0  0  0  0  0  0  0  0  0
  1  2  1  0  0  0  0
  2  3  2  0  0  0  0
  2  8  1  0  0  0  0
  3  4  1  0  0  0  0
  4  5  2  0  0  0  0
  4  6  1  0  0  0  0
  6  7  1  0  0  0  0
  7  8  2  0  0  0  0
  7 15  1  0  0  0  0
  8  9  1  0  0  0  0
  9 10  2  0  0  0  0
 10 11  1  0  0  0  0
 10 14  1  0  0  0  0
 11 12  2  0  0  0  0
 12 13  1  0  0  0  0
 12 17  1  0  0  0  0
 13 14  1  0  0  0  0
 14 15  2  0  0  0  0
 15 16  1  0  0  0  0
M  END
>  <DATABASE_ID>
DB04571

>  <DATABASE_NAME>
drugbank

>  <SMILES>
CC1=CC2=CC3=C(OC(=O)C=C3C)C(C)=C2O1

>  <INCHI_IDENTIFIER>
InChI=1S/C14H12O3/c1-7-4-12(15)17-14-9(3)13-10(6-11(7)14)5-8(2)16-13/h4-6H,1-3H3

>  <INCHI_KEY>
FMHHVULEAZTJMA-UHFFFAOYSA-N

>  <FORMULA>
C14H12O3

>  <MOLECULAR_WEIGHT>
228.2433

>  <EXACT_MASS>
228.07864425

>  <JCHEM_ACCEPTOR_COUNT>
1

>  <JCHEM_ATOM_COUNT>
29

>  <JCHEM_AVERAGE_NEUTRAL_MICROSPECIES_CHARGE>
1.5284899913271375e-10

>  <JCHEM_AVERAGE_POLARIZABILITY>
24.767571325494444

>  <JCHEM_BIOAVAILABILITY>
1

>  <JCHEM_DONOR_COUNT>
0

>  <JCHEM_FORMAL_CHARGE>
0

>  <JCHEM_GHOSE_FILTER>
1

>  <JCHEM_IUPAC>
2,5,9-trimethyl-7H-furo[3,2-g]chromen-7-one

>  <ALOGPS_LOGP>
3.26

>  <JCHEM_LOGP>
2.9548603333333343

>  <ALOGPS_LOGS>
-3.56

>  <JCHEM_MDDR_LIKE_RULE>
0

>  <JCHEM_NEUTRAL_CHARGE>
0

>  <JCHEM_NUMBER_OF_RINGS>
3

>  <JCHEM_PHYSIOLOGICAL_CHARGE>
0

>  <JCHEM_PKA_STRONGEST_BASIC>
-2.8157056433788785

>  <JCHEM_POLAR_SURFACE_AREA>
39.44

>  <JCHEM_REFRACTIVITY>
64.8626

>  <JCHEM_ROTATABLE_BOND_COUNT>
0

>  <JCHEM_RULE_OF_FIVE>
1

>  <ALOGPS_SOLUBILITY>
6.27e-02 g/l

>  <JCHEM_TRADITIONAL_IUPAC>
tetrahydrofolic acid

>  <JCHEM_VEBER_RULE>
1

>  <DRUGBANK_ID>
DB04571

>  <DRUG_GROUPS>
approved

>  <GENERIC_NAME>
Trioxsalen

>  <SYNONYMS>
2',4,8-Trimethylpsoralen; 4,5',8-Trimethylpsoralen; 4,8,5'-Trimethylpsoralen; 6-hydroxy-β,2,7-trimethyl-5-benzofuranacrylic acid, δ-lactone; Trimethylpsoralen; Trioxisaleno; Trioxsalen; Trioxysalen; Trioxysalene; Trioxysalenum; Trisoralen

>  <PRODUCTS>
Trisoralen Tab 5mg

$$$$

 OpenBabel05042401512D

 20 20  0  0  1  0  0  0  0  0999 V2000
   -1.4289    0.8250    0.0000 C   0  0  0  0  0  0  0  0  0  0  0  0
   -0.7145    1.2375    0.0000 C   0  0  0  0  0  0  0  0  0  0  0  0
    1.4289    0.8250    0.0000 C   0  0  1  0  0  0  0  0  0  0  0  0
    0.7145    1.2375    0.0000 C   0  0  1  0  0  0  0  0  0  0  0  0
    1.4289   -0.0000    0.0000 C   0  0  1  0  0  0  0  0  0  0  0  0
    0.0000    0.8250    0.0000 C   0  0  2  0  0  0  0  0  0  0  0  0
    0.7145   -0.4125    0.0000 C   0  0  1  0  0  0  0  0  0  0  0  0
   -2.1434    1.2375    0.0000 O   0  0  0  0  0  0  0  0  0  0  0  0
   -0.7145    2.0625    0.0000 O   0  0  0  0  0  0  0  0  0  0  0  0
    2.1434    1.2375    0.0000 O   0  0  0  0  0  0  0  0  0  0  0  0
    0.7145    2.0625    0.0000 O   0  0  0  0  0  0  0  0  0  0  0  0
    2.1434   -0.4125    0.0000 O   0  0  0  0  0  0  0  0  0  0  0  0
    0.7145   -1.2375    0.0000 O   0  0  0  0  0  0  0  0  0  0  0  0
    0.0000    0.0000    0.0000 O   0  0  0  0  0  0  0  0  0  0  0  0
   -0.7145    0.4125    0.0000 H   0  0  0  0  0  0  0  0  0  0  0  0
    1.1468    1.6002    0.0000 H   0  0  0  0  0  0  0  0  0  0  0  0
    1.2448    1.8695    0.0000 H   0  0  0  0  0  0  0  0  0  0  0  0
    2.1434    0.4125    0.0000 H   0  0  0  0  0  0  0  0  0  0  0  0
    0.0000    1.6500    0.0000 H   0  0  0  0  0  0  0  0  0  0  0  0
    1.4289   -0.8250    0.0000 H   0  0  0  0  0  0  0  0  0  0  0  0
  2  1  1  0  0  0  0
  2  9  1  0  0  0  0
  2 15  1  0  0  0  0
  3 10  1  0  0  0  0
  3 16  1  1  0  0  0
  4  3  1  0  0  0  0
  4 11  1  0  0  0  0
  4 17  1  6  0  0  0
  5  3  1  0  0  0  0
  5 12  1  0  0  0  0
  5 18  1  1  0  0  0
  6  2  1  0  0  0  0
  6  4  1  0  0  0  0
  6 19  1  1  0  0  0
  7  5  1  0  0  0  0
  7 13  1  0  0  0  0
  7 20  1  6  0  0  0
  8  1  1  0  0  0  0
 14  6  1  0  0  0  0
 14  7  1  0  0  0  0
M  END
>  <DATABASE_ID>
DB04526

>  <DATABASE_NAME>
drugbank

>  <SMILES>
[H][C@](O)(CO)[C@@]1([H])O[C@]([H])(O)[C@@]([H])(O)[C@@]([H])(O)[C@]1([H])O

>  <INCHI_IDENTIFIER>
InChI=1S/C7H14O7/c8-1-2(9)6-4(11)3(10)5(12)7(13)14-6/h2-13H,1H2/t2-,3-,4-,5-,6+,7-/m0/s1

>  <INCHI_KEY>
BGWQRWREUZVRGI-QQABCQGCSA-N

>  <FORMULA>
C7H14O7

>  <MOLECULAR_WEIGHT>
210.1819

>  <EXACT_MASS>
210.073952802

>  <JCHEM_ACCEPTOR_COUNT>
7

>  <JCHEM_ATOM_COUNT>
28

>  <JCHEM_AVERAGE_NEUTRAL_MICROSPECIES_CHARGE>
-5.479738744909478e-05

>  <JCHEM_AVERAGE_POLARIZABILITY>
18.932057280900608

>  <JCHEM_BIOAVAILABILITY>
1

>  <JCHEM_DONOR_COUNT>
6

>  <JCHEM_FORMAL_CHARGE>
0

>  <JCHEM_GHOSE_FILTER>
0

>  <JCHEM_IUPAC>
(2S,3S,4S,5S,6R)-6-[(1S)-1,2-dihydroxyethyl]oxane-2,3,4,5-tetrol

>  <ALOGPS_LOGP>
-2.82

>  <JCHEM_LOGP>
-3.56287416

>  <ALOGPS_LOGS>
0.36

>  <JCHEM_MDDR_LIKE_RULE>
0

>  <JCHEM_NEUTRAL_CHARGE>
0

>  <JCHEM_NUMBER_OF_RINGS>
1

>  <JCHEM_PHYSIOLOGICAL_CHARGE>
0

>  <JCHEM_PKA>
12.601623047954275

>  <JCHEM_PKA_STRONGEST_ACIDIC>
11.293627891368423

>  <JCHEM_PKA_STRONGEST_BASIC>
-2.974505986946932

>  <JCHEM_POLAR_SURFACE_AREA>
130.61

>  <JCHEM_REFRACTIVITY>
41.88589999999999

>  <JCHEM_ROTATABLE_BOND_COUNT>
2

>  <JCHEM_RULE_OF_FIVE>
0

>  <ALOGPS_SOLUBILITY>
4.85e+02 g/l

>  <JCHEM_TRADITIONAL_IUPAC>
tetrahydrofolic acid

>  <JCHEM_VEBER_RULE>
0

>  <DRUGBANK_ID>
DB04526

>  <SECONDARY_ACCESSION_NUMBERS>
EXPT01620

>  <DRUG_GROUPS>
experimental

>  <GENERIC_NAME>
L-Glycero-D-Manno-Heptopyranose

$$$$

 OpenBabel05042401512D

 23 24  0  0  1  0  0  0  0  0999 V2000
   -3.1038   -2.0012    0.0000 O   0  0  0  0  0  0  0  0  0  0  0  0
   -2.3893   -1.5887    0.0000 C   0  0  0  0  0  0  0  0  0  0  0  0
   -1.6748   -2.0012    0.0000 C   0  0  1  0  0  0  0  0  0  0  0  0
   -0.9603   -1.5887    0.0000 O   0  0  0  0  0  0  0  0  0  0  0  0
   -0.2459   -2.0012    0.0000 C   0  0  2  0  0  0  0  0  0  0  0  0
   -0.2459   -2.8262    0.0000 C   0  0  2  0  0  0  0  0  0  0  0  0
    0.4686   -3.2387    0.0000 O   0  0  0  0  0  0  0  0  0  0  0  0
   -0.9603   -3.2387    0.0000 C   0  0  1  0  0  0  0  0  0  0  0  0
   -0.9603   -4.0637    0.0000 O   0  0  0  0  0  0  0  0  0  0  0  0
   -1.6748   -2.8262    0.0000 C   0  0  1  0  0  0  0  0  0  0  0  0
   -2.3893   -3.2387    0.0000 O   0  0  0  0  0  0  0  0  0  0  0  0
    0.4686   -0.7637    0.0000 C   0  0  2  0  0  0  0  0  0  0  0  0
   -0.2459   -0.3512    0.0000 C   0  0  1  0  0  0  0  0  0  0  0  0
   -0.9603   -0.7637    0.0000 C   0  0  0  0  0  0  0  0  0  0  0  0
   -1.6748   -0.3512    0.0000 O   0  0  0  0  0  0  0  0  0  0  0  0
   -0.2459    0.4738    0.0000 O   0  0  0  0  0  0  0  0  0  0  0  0
    0.4686    0.8863    0.0000 C   0  0  3  0  0  0  0  0  0  0  0  0
    0.4686    1.7113    0.0000 O   0  0  0  0  0  0  0  0  0  0  0  0
    1.1831    0.4738    0.0000 C   0  0  2  0  0  0  0  0  0  0  0  0
    1.8975    0.8863    0.0000 O   0  0  0  0  0  0  0  0  0  0  0  0
    1.1831   -0.3512    0.0000 C   0  0  1  0  0  0  0  0  0  0  0  0
    1.8975   -0.7637    0.0000 O   0  0  0  0  0  0  0  0  0  0  0  0
    0.4686   -1.5887    0.0000 O   0  0  0  0  0  0  0  0  0  0  0  0
  1  2  1  0  0  0  0
  3  2  1  1  0  0  0
  3  4  1  0  0  0  0
  3 10  1  0  0  0  0
  4  5  1  0  0  0  0
  5 23  1  1  0  0  0
  5  6  1  0  0  0  0
  6  7  1  6  0  0  0
  6  8  1  0  0  0  0
  8  9  1  1  0  0  0
  8 10  1  0  0  0  0
 10 11  1  1  0  0  0
 12 13  1  0  0  0  0
 12 21  1  0  0  0  0
 12 23  1  6  0  0  0
 13 14  1  1  0  0  0
 13 16  1  0  0  0  0
 14 15  1  0  0  0  0
 16 17  1  0  0  0  0
 17 18  1  0  0  0  0
 17 19  1  0  0  0  0
 19 20  1  6  0  0  0
 19 21  1  0  0  0  0
 21 22  1  1  0  0  0
M  END
>  <DATABASE_ID>
DB04465

>  <DATABASE_NAME>
drugbank

>  <SMILES>
OC[C@H]1O[C@@H](O[C@H]2[C@H](O)[C@@H](O)C(O)O[C@@H]2CO)[C@H](O)[C@@H](O)[C@H]1O

>  <INCHI_IDENTIFIER>
InChI=1S/C12H22O11/c13-1-3-5(15)6(16)9(19)12(22-3)23-10-4(2-14)21-11(20)8(18)7(10)17/h3-20H,1-2H2/t3-,4-,5+,6+,7-,8-,9-,10-,11?,12+/m1/s1

>  <INCHI_KEY>
GUBGYTABKSRVRQ-QKKXKWKRSA-N

>  <FORMULA>
C12H22O11

>  <MOLECULAR_WEIGHT>
342.2965

>  <EXACT_MASS>
342.116211546

>  <JCHEM_ACCEPTOR_COUNT>
11

>  <JCHEM_ATOM_COUNT>
45

>  <JCHEM_AVERAGE_NEUTRAL_MICROSPECIES_CHARGE>
-6.614814377167016e-05

>  <JCHEM_AVERAGE_POLARIZABILITY>
31.31998646140109

>  <JCHEM_BIOAVAILABILITY>
0

>  <JCHEM_DONOR_COUNT>
8

>  <JCHEM_FORMAL_CHARGE>
0

>  <JCHEM_GHOSE_FILTER>
0

>  <JCHEM_IUPAC>
(2R,3R,4S,5R,6S)-2-(hydroxymethyl)-6-{[(2R,3S,4R,5R)-4,5,6-trihydroxy-2-(hydroxymethyl)oxan-3-yl]oxy}oxane-3,4,5-triol

>  <ALOGPS_LOGP>
-3.01

>  <JCHEM_LOGP>
-4.703374863666666

>  <ALOGPS_LOGS>
0.23

>  <JCHEM_MDDR_LIKE_RULE>
0

>  <JCHEM_NEUTRAL_CHARGE>
0

>  <JCHEM_NUMBER_OF_RINGS>
2

>  <JCHEM_PHYSIOLOGICAL_CHARGE>
0

>  <JCHEM_PKA>
12.17368931723461

>  <JCHEM_PKA_STRONGEST_ACIDIC>
11.254374125721942

>  <JCHEM_PKA_STRONGEST_BASIC>
-2.9810835652988272

>  <JCHEM_POLAR_SURFACE_AREA>
189.52999999999997

>  <JCHEM_REFRACTIVITY>
68.3367

>  <JCHEM_ROTATABLE_BOND_COUNT>
4

>  <JCHEM_RULE_OF_FIVE>
0

>  <ALOGPS_SOLUBILITY>
5.86e+02 g/l

>  <JCHEM_TRADITIONAL_IUPAC>
biotin

>  <JCHEM_VEBER_RULE>
0

>  <DRUGBANK_ID>
DB04465

>  <SECONDARY_ACCESSION_NUMBERS>
EXPT02005

>  <DRUG_GROUPS>
approved; experimental; investigational

>  <GENERIC_NAME>
Lactose

>  <PRODUCTS>
Lac-tol Pwr 50gm/pck; Lactol

$$$$
NSC
 OpenBabel05042401512D

 28 31  0  0  0  0  0  0  0  0999 V2000
    1.1656   -0.8906    0.0000 C   0  0  0  0  0  0  0  0  0  0  0  0
    0.4512   -1.3031    0.0000 C   0  0  0  0  0  0  0  0  0  0  0  0
    0.4512   -2.1281    0.0000 C   0  0  0  0  0  0  0  0  0  0  0  0
    1.1656   -2.5406    0.0000 N   0  0  0  0  0  0  0  0  0  0  0  0
   -0.2633   -2.5406    0.0000 C   0  0  0  0  0  0  0  0  0  0  0  0
   -0.9778   -2.1281    0.0000 C   0  0  0  0  0  0  0  0  0  0  0  0
   -1.6923   -2.5406    0.0000 C   0  0  0  0  0  0  0  0  0  0  0  0
   -0.9778   -1.3031    0.0000 N   0  0  0  0  0  0  0  0  0  0  0  0
   -0.2633   -0.8906    0.0000 C   0  0  0  0  0  0  0  0  0  0  0  0
   -0.2633   -0.0656    0.0000 C   0  0  0  0  0  0  0  0  0  0  0  0
    0.4512    0.3469    0.0000 C   0  0  0  0  0  0  0  0  0  0  0  0
    1.1656   -0.0656    0.0000 C   0  0  0  0  0  0  0  0  0  0  0  0
    1.8801    0.3469    0.0000 N   0  0  0  0  0  0  0  0  0  0  0  0
    2.5946   -0.0656    0.0000 C   0  0  0  0  0  0  0  0  0  0  0  0
    2.5946   -0.8906    0.0000 O   0  0  0  0  0  0  0  0  0  0  0  0
    3.3090    0.3469    0.0000 N   0  0  0  0  0  0  0  0  0  0  0  0
    4.0235   -0.0656    0.0000 C   0  0  0  0  0  0  0  0  0  0  0  0
    4.7380    0.3469    0.0000 C   0  0  0  0  0  0  0  0  0  0  0  0
    5.4525   -0.0656    0.0000 C   0  0  0  0  0  0  0  0  0  0  0  0
    6.1669    0.3469    0.0000 C   0  0  0  0  0  0  0  0  0  0  0  0
    6.1669    1.1719    0.0000 N   0  0  0  0  0  0  0  0  0  0  0  0
    6.8814   -0.0656    0.0000 C   0  0  0  0  0  0  0  0  0  0  0  0
    6.8814   -0.8906    0.0000 C   0  0  0  0  0  0  0  0  0  0  0  0
    7.5959   -1.3031    0.0000 C   0  0  0  0  0  0  0  0  0  0  0  0
    6.1669   -1.3031    0.0000 N   0  0  0  0  0  0  0  0  0  0  0  0
    5.4525   -0.8906    0.0000 C   0  0  0  0  0  0  0  0  0  0  0  0
    4.7380   -1.3031    0.0000 C   0  0  0  0  0  0  0  0  0  0  0  0
    4.0235   -0.8906    0.0000 C   0  0  0  0  0  0  0  0  0  0  0  0
  1  2  1  0  0  0  0
  1 12  2  0  0  0  0
  2  3  1  0  0  0  0
  2  9  2  0  0  0  0
  3  4  1  0  0  0  0
  3  5  2  0  0  0  0
  5  6  1  0  0  0  0
  6  7  1  0  0  0  0
  6  8  2  0  0  0  0
  8  9  1  0  0  0  0
  9 10  1  0  0  0  0
 10 11  2  0  0  0  0
 11 12  1  0  0  0  0
 12 13  1  0  0  0  0
 13 14  1  0  0  0  0
 14 15  2  0  0  0  0
 14 16  1  0  0  0  0
 16 17  1  0  0  0  0
 17 18  1  0  0  0  0
 17 28  2  0  0  0  0
 18 19  2  0  0  0  0
 19 20  1  0  0  0  0
 19 26  1  0  0  0  0
 20 21  1  0  0  0  0
 20 22  2  0  0  0  0
 22 23  1  0  0  0  0
 23 24  1  0  0  0  0
 23 25  2  0  0  0  0
 25 26  1  0  0  0  0
 26 27  2  0  0  0  0
 27 28  1  0  0  0  0
M  END
>  <DATABASE_ID>
DB04452

>  <DATABASE_NAME>
drugbank

>  <SMILES>
CC1=NC2=CC=C(NC(=O)NC3=CC4=C(C=C3)N=C(C)C=C4N)C=C2C(N)=C1

>  <INCHI_IDENTIFIER>
InChI=1S/C21H20N6O/c1-11-7-17(22)15-9-13(3-5-19(15)24-11)26-21(28)27-14-4-6-20-16(10-14)18(23)8-12(2)25-20/h3-10H,1-2H3,(H2,22,24)(H2,23,25)(H2,26,27,28)

>  <INCHI_KEY>
HOUSDILKOJMENG-UHFFFAOYSA-N

>  <FORMULA>
C21H20N6O

>  <MOLECULAR_WEIGHT>
372.4231

>  <EXACT_MASS>
372.169859292

>  <JCHEM_ACCEPTOR_COUNT>
5

>  <JCHEM_ATOM_COUNT>
48

>  <JCHEM_AVERAGE_NEUTRAL_MICROSPECIES_CHARGE>
1.9591192692535233

>  <JCHEM_AVERAGE_POLARIZABILITY>
39.976057109903415

>  <JCHEM_BIOAVAILABILITY>
1

>  <JCHEM_DONOR_COUNT>
4

>  <JCHEM_FORMAL_CHARGE>
0

>  <JCHEM_GHOSE_FILTER>
1

>  <JCHEM_IUPAC>
1,3-bis(4-amino-2-methylquinolin-6-yl)urea

>  <ALOGPS_LOGP>
2.55

>  <JCHEM_LOGP>
2.038852901666666

>  <ALOGPS_LOGS>
-4.53

>  <JCHEM_MDDR_LIKE_RULE>
0

>  <JCHEM_NEUTRAL_CHARGE>
2

>  <JCHEM_NUMBER_OF_RINGS>
4

>  <JCHEM_PHYSIOLOGICAL_CHARGE>
2

>  <JCHEM_PKA>
18.008552328607315

>  <JCHEM_PKA_STRONGEST_ACIDIC>
11.51854209249237

>  <JCHEM_PKA_STRONGEST_BASIC>
9.074990023582552

>  <JCHEM_POLAR_SURFACE_AREA>
118.94999999999999

>  <JCHEM_REFRACTIVITY>
112.4792

>  <JCHEM_ROTATABLE_BOND_COUNT>
2

>  <JCHEM_RULE_OF_FIVE>
1

>  <ALOGPS_SOLUBILITY>
1.11e-02 g/l

>  <JCHEM_TRADITIONAL_IUPAC>
tetrahydrofolic acid

>  <JCHEM_VEBER_RULE>
0

>  <DRUGBANK_ID>
DB04452

>  <SECONDARY_ACCESSION_NUMBERS>
EXPT02388

>  <DRUG_GROUPS>
experimental

>  <GENERIC_NAME>
Aminoquinuride

>  <SYNONYMS>
Aminoquinuride

$$$$
ESX
 OpenBabel05042401512D

 12 13  0  0  0  0  0  0  0  0999 V2000
   -1.5296   -0.2296    0.0000 C   0  0  0  0  0  0  0  0  0  0  0  0
   -0.7046   -0.2296    0.0000 C   0  0  0  0  0  0  0  0  0  0  0  0
   -1.9421    0.4848    0.0000 N   0  0  0  0  0  0  0  0  0  0  0  0
   -1.9421   -0.9441    0.0000 N   0  3  0  0  0  0  0  0  0  0  0  0
   -0.2197   -0.8971    0.0000 S   0  0  0  0  0  0  0  0  0  0  0  0
    0.5649   -0.6421    0.0000 C   0  0  0  0  0  0  0  0  0  0  0  0
    0.5649    0.1829    0.0000 C   0  0  0  0  0  0  0  0  0  0  0  0
   -0.2197    0.4378    0.0000 C   0  0  0  0  0  0  0  0  0  0  0  0
    1.2794   -1.0546    0.0000 C   0  0  0  0  0  0  0  0  0  0  0  0
    1.9938   -0.6421    0.0000 C   0  0  0  0  0  0  0  0  0  0  0  0
    1.9938    0.1829    0.0000 C   0  0  0  0  0  0  0  0  0  0  0  0
    1.2794    0.5954    0.0000 C   0  0  0  0  0  0  0  0  0  0  0  0
  1  2  1  0  0  0  0
  1  3  1  0  0  0  0
  1  4  2  0  0  0  0
  2  5  1  0  0  0  0
  2  8  2  0  0  0  0
  5  6  1  0  0  0  0
  6  7  2  0  0  0  0
  6  9  1  0  0  0  0
  7  8  1  0  0  0  0
  7 12  1  0  0  0  0
  9 10  2  0  0  0  0
 10 11  1  0  0  0  0
 11 12  2  0  0  0  0
M  CHG  1   4   1
M  END
>  <DATABASE_ID>
DB04446

>  <DATABASE_NAME>
drugbank

>  <SMILES>
NC(=[NH2+])C1=CC2=C(S1)C=CC=C2

>  <INCHI_IDENTIFIER>
InChI=1S/C9H8N2S/c10-9(11)8-5-6-3-1-2-4-7(6)12-8/h1-5H,(H3,10,11)/p+1

>  <INCHI_KEY>
JZWDLUGQTRKBNA-UHFFFAOYSA-O

>  <FORMULA>
C9H9N2S

>  <MOLECULAR_WEIGHT>
177.246

>  <EXACT_MASS>
177.048643988

>  <JCHEM_ACCEPTOR_COUNT>
1

>  <JCHEM_ATOM_COUNT>
21

>  <JCHEM_AVERAGE_NEUTRAL_MICROSPECIES_CHARGE>
0.9785398805928819

>  <JCHEM_AVERAGE_POLARIZABILITY>
18.866980830183792

>  <JCHEM_BIOAVAILABILITY>
1

>  <JCHEM_DONOR_COUNT>
2

>  <JCHEM_FORMAL_CHARGE>
1

>  <JCHEM_GHOSE_FILTER>
1

>  <JCHEM_IUPAC>
[amino(1-benzothiophen-2-yl)methylidene]azanium

>  <ALOGPS_LOGP>
-0.23

>  <JCHEM_LOGP>
1.9021785066666665

>  <ALOGPS_LOGS>
-3.52

>  <JCHEM_MDDR_LIKE_RULE>
0

>  <JCHEM_NEUTRAL_CHARGE>
1

>  <JCHEM_NUMBER_OF_RINGS>
2

>  <JCHEM_PHYSIOLOGICAL_CHARGE>
1

>  <JCHEM_PKA_STRONGEST_BASIC>
8.658946396018763

>  <JCHEM_POLAR_SURFACE_AREA>
51.61

>  <JCHEM_REFRACTIVITY>
61.654700000000005

>  <JCHEM_ROTATABLE_BOND_COUNT>
1

>  <JCHEM_RULE_OF_FIVE>
1

>  <ALOGPS_SOLUBILITY>
6.48e-02 g/l

>  <JCHEM_TRADITIONAL_IUPAC>
tetrahydrofolic acid

>  <JCHEM_VEBER_RULE>
0

>  <DRUGBANK_ID>
DB04446

>  <SECONDARY_ACCESSION_NUMBERS>
EXPT01365

>  <DRUG_GROUPS>
experimental

>  <GENERIC_NAME>
Benzo[B]Thiophene-2-Carboxamidine

$$$$

 OpenBabel05042401512D

 19 20  0  0  1  0  0  0  0  0999 V2000
   -4.0042   -0.3365    0.0000 N   0  0  0  0  0  0  0  0  0  0  0  0
   -3.2897    0.0759    0.0000 C   0  0  0  0  0  0  0  0  0  0  0  0
   -3.2897    0.9009    0.0000 N   0  0  0  0  0  0  0  0  0  0  0  0
   -2.5753   -0.3365    0.0000 N   0  0  0  0  0  0  0  0  0  0  0  0
   -1.8608    0.0759    0.0000 C   0  0  0  0  0  0  0  0  0  0  0  0
   -1.1463   -0.3365    0.0000 C   0  0  0  0  0  0  0  0  0  0  0  0
   -0.4319    0.0759    0.0000 C   0  0  0  0  0  0  0  0  0  0  0  0
    0.2824   -0.3365    0.0000 C   0  0  2  0  0  0  0  0  0  0  0  0
    0.2824   -1.1615    0.0000 N   0  0  0  0  0  0  0  0  0  0  0  0
    0.9970   -1.5740    0.0000 C   0  0  0  0  0  0  0  0  0  0  0  0
    1.7115   -1.1615    0.0000 C   0  0  1  0  0  0  0  0  0  0  0  0
    1.7115   -0.3365    0.0000 N   0  0  0  0  0  0  0  0  0  0  0  0
    0.9970    0.0759    0.0000 C   0  0  0  0  0  0  0  0  0  0  0  0
    2.4961   -1.4164    0.0000 C   0  0  0  0  0  0  0  0  0  0  0  0
    2.9810   -0.7490    0.0000 C   0  0  0  0  0  0  0  0  0  0  0  0
    2.4961   -0.0815    0.0000 C   0  0  0  0  0  0  0  0  0  0  0  0
    0.9970   -2.3990    0.0000 O   0  0  0  0  0  0  0  0  0  0  0  0
    0.9970    0.9009    0.0000 O   0  0  0  0  0  0  0  0  0  0  0  0
    1.7977   -1.9819    0.0000 H   0  0  0  0  0  0  0  0  0  0  0  0
  1  2  1  0  0  0  0
  2  3  2  0  0  0  0
  2  4  1  0  0  0  0
  4  5  1  0  0  0  0
  5  6  1  0  0  0  0
  6  7  1  0  0  0  0
  8  7  1  1  0  0  0
  8 13  1  0  0  0  0
  9 10  1  0  0  0  0
  9  8  1  0  0  0  0
 10 11  1  0  0  0  0
 10 17  2  0  0  0  0
 11 14  1  0  0  0  0
 11 12  1  0  0  0  0
 11 19  1  6  0  0  0
 12 13  1  0  0  0  0
 12 16  1  0  0  0  0
 13 18  2  0  0  0  0
 14 15  1  0  0  0  0
 15 16  1  0  0  0  0
M  END
>  <DATABASE_ID>
DB04433

>  <DATABASE_NAME>
drugbank

>  <SMILES>
[H][C@@]12CCCN1C(=O)[C@H](CCCNC(N)=N)NC2=O

>  <INCHI_IDENTIFIER>
InChI=1S/C11H19N5O2/c12-11(13)14-5-1-3-7-10(18)16-6-2-4-8(16)9(17)15-7/h7-8H,1-6H2,(H,15,17)(H4,12,13,14)/t7-,8-/m0/s1

>  <INCHI_KEY>
ZRJHYOXNWCMGMW-YUMQZZPRSA-N

>  <FORMULA>
C11H19N5O2

>  <MOLECULAR_WEIGHT>
253.3009

>  <EXACT_MASS>
253.153874877

>  <JCHEM_ACCEPTOR_COUNT>
5

>  <JCHEM_ATOM_COUNT>
37

>  <JCHEM_AVERAGE_NEUTRAL_MICROSPECIES_CHARGE>
0.9999396592555184

>  <JCHEM_AVERAGE_POLARIZABILITY>
26.68446130424735

>  <JCHEM_BIOAVAILABILITY>
1

>  <JCHEM_DONOR_COUNT>
4

>  <JCHEM_FORMAL_CHARGE>
0

>  <JCHEM_GHOSE_FILTER>
0

>  <JCHEM_IUPAC>
N-{3-[(3S,8aS)-1,4-dioxo-octahydropyrrolo[1,2-a]pyrazin-3-yl]propyl}guanidine

>  <ALOGPS_LOGP>
-2.17

>  <JCHEM_LOGP>
-2.140307920858981

>  <ALOGPS_LOGS>
-2.20

>  <JCHEM_MDDR_LIKE_RULE>
0

>  <JCHEM_NEUTRAL_CHARGE>
1

>  <JCHEM_NUMBER_OF_RINGS>
2

>  <JCHEM_PHYSIOLOGICAL_CHARGE>
1

>  <JCHEM_PKA_STRONGEST_ACIDIC>
11.271356554777084

>  <JCHEM_PKA_STRONGEST_BASIC>
12.166326854994079

>  <JCHEM_POLAR_SURFACE_AREA>
111.31

>  <JCHEM_REFRACTIVITY>
75.7097

>  <JCHEM_ROTATABLE_BOND_COUNT>
4

>  <JCHEM_RULE_OF_FIVE>
1

>  <ALOGPS_SOLUBILITY>
1.60e+00 g/l

>  <JCHEM_TRADITIONAL_IUPAC>
2-amino-3H,5H-pyrrolo[3,2-d]pyrimidin-4-one

>  <JCHEM_VEBER_RULE>
0

>  <DRUGBANK_ID>
DB04433

>  <SECONDARY_ACCESSION_NUMBERS>
EXPT00499

>  <DRUG_GROUPS>
experimental

>  <GENERIC_NAME>
Verpacamide A

>  <SYNONYMS>
Cyclo-(L-arginine-L-proline) inhibitor

$$$$

 OpenBabel05042401512D

 12 13  0  0  0  0  0  0  0  0999 V2000
   -1.8659   -1.4124    0.0000 O   0  0  0  0  0  0  0  0  0  0  0  0
   -1.4534   -0.6979    0.0000 B   0  0  0  0  0  0  0  0  0  0  0  0
   -1.8659    0.0165    0.0000 O   0  0  0  0  0  0  0  0  0  0  0  0
   -0.6284   -0.6979    0.0000 C   0  0  0  0  0  0  0  0  0  0  0  0
   -0.1435   -1.3654    0.0000 C   0  0  0  0  0  0  0  0  0  0  0  0
    0.6411   -1.1104    0.0000 C   0  0  0  0  0  0  0  0  0  0  0  0
    0.6411   -0.2854    0.0000 C   0  0  0  0  0  0  0  0  0  0  0  0
   -0.1435   -0.0305    0.0000 S   0  0  0  0  0  0  0  0  0  0  0  0
    1.3556    0.1271    0.0000 C   0  0  0  0  0  0  0  0  0  0  0  0
    2.0701   -0.2854    0.0000 C   0  0  0  0  0  0  0  0  0  0  0  0
    2.0701   -1.1104    0.0000 C   0  0  0  0  0  0  0  0  0  0  0  0
    1.3556   -1.5229    0.0000 C   0  0  0  0  0  0  0  0  0  0  0  0
  1  2  1  0  0  0  0
  2  3  1  0  0  0  0
  2  4  1  0  0  0  0
  4  5  2  0  0  0  0
  4  8  1  0  0  0  0
  5  6  1  0  0  0  0
  6  7  2  0  0  0  0
  6 12  1  0  0  0  0
  7  8  1  0  0  0  0
  7  9  1  0  0  0  0
  9 10  2  0  0  0  0
 10 11  1  0  0  0  0
 11 12  2  0  0  0  0
M  END
>  <DATABASE_ID>
DB04360

>  <DATABASE_NAME>
drugbank

>  <SMILES>
OB(O)C1=CC2=C(S1)C=CC=C2

>  <INCHI_IDENTIFIER>
InChI=1S/C8H7BO2S/c10-9(11)8-5-6-3-1-2-4-7(6)12-8/h1-5,10-11H

>  <INCHI_KEY>
YNCYPMUJDDXIRH-UHFFFAOYSA-N

>  <FORMULA>
C8H7BO2S

>  <MOLECULAR_WEIGHT>
178.016

>  <EXACT_MASS>
178.025980624

>  <JCHEM_ACCEPTOR_COUNT>
2

>  <JCHEM_ATOM_COUNT>
19

>  <JCHEM_AVERAGE_NEUTRAL_MICROSPECIES_CHARGE>
-0.11265221241983643

>  <JCHEM_AVERAGE_POLARIZABILITY>
18.432756837079722

>  <JCHEM_BIOAVAILABILITY>
1

>  <JCHEM_DONOR_COUNT>
2

>  <JCHEM_FORMAL_CHARGE>
0

>  <JCHEM_GHOSE_FILTER>
0

>  <JCHEM_IUPAC>
(1-benzothiophen-2-yl)boronic acid

>  <ALOGPS_LOGP>
1.84

>  <JCHEM_LOGP>
2.3101

>  <ALOGPS_LOGS>
-2.96

>  <JCHEM_MDDR_LIKE_RULE>
0

>  <JCHEM_NEUTRAL_CHARGE>
0

>  <JCHEM_NUMBER_OF_RINGS>
2

>  <JCHEM_PHYSIOLOGICAL_CHARGE>
0

>  <JCHEM_PKA>
10.001920809059982

>  <JCHEM_PKA_STRONGEST_ACIDIC>
7.905055116210439

>  <JCHEM_PKA_STRONGEST_BASIC>
-5.770458372066129

>  <JCHEM_POLAR_SURFACE_AREA>
40.46

>  <JCHEM_REFRACTIVITY>
43.10350000000001

>  <JCHEM_ROTATABLE_BOND_COUNT>
1

>  <JCHEM_RULE_OF_FIVE>
1

>  <ALOGPS_SOLUBILITY>
1.94e-01 g/l

>  <JCHEM_TRADITIONAL_IUPAC>
biotin

>  <JCHEM_VEBER_RULE>
0

>  <DRUGBANK_ID>
DB04360

>  <SECONDARY_ACCESSION_NUMBERS>
EXPT00787

>  <DRUG_GROUPS>
experimental

>  <GENERIC_NAME>
Benzo[B]Thiophene-2-Boronic Acid

$$$$

 OpenBabel05042401512D

 48 51  0  0  1  0  0  0  0  0999 V2000
    3.1157    4.3579    0.0000 C   0  0  0  0  0  0  0  0  0  0  0  0
    2.3011    4.3783    0.0000 C   0  0  0  0  0  0  0  0  0  0  0  0
    1.8939    5.0910    0.0000 O   0  0  0  0  0  0  0  0  0  0  0  0
    1.8735    3.6655    0.0000 N   0  0  0  0  0  0  0  0  0  0  0  0
    2.2807    2.9527    0.0000 C   0  0  0  0  0  0  0  0  0  0  0  0
    3.0953    2.9325    0.0000 N   0  0  0  0  0  0  0  0  0  0  0  0
    1.8531    2.2400    0.0000 N   0  0  0  0  0  0  0  0  0  0  0  0
    2.2604    1.5273    0.0000 C   0  0  0  0  0  0  0  0  0  0  0  0
    1.8226    0.8451    0.0000 C   0  0  0  0  0  0  0  0  0  0  0  0
    2.1483    0.0712    0.0000 C   0  0  0  0  0  0  0  0  0  0  0  0
    1.7615   -0.6720    0.0000 C   0  0  2  0  0  0  0  0  0  0  0  0
    0.9978   -0.3971    0.0000 N   0  0  0  0  0  0  0  0  0  0  0  0
    0.2137   -0.4276    0.0000 C   0  0  0  0  0  0  0  0  0  0  0  0
    0.2137    0.3971    0.0000 O   0  0  0  0  0  0  0  0  0  0  0  0
   -0.5192   -0.7839    0.0000 C   0  0  2  0  0  0  0  0  0  0  0  0
   -1.0691   -0.1832    0.0000 C   0  0  0  0  0  0  0  0  0  0  0  0
   -0.9062    0.6007    0.0000 C   0  0  0  0  0  0  0  0  0  0  0  0
   -1.3848    1.2727    0.0000 C   0  0  0  0  0  0  0  0  0  0  0  0
   -1.0386    2.0161    0.0000 C   0  0  0  0  0  0  0  0  0  0  0  0
   -0.2239    2.1382    0.0000 O   0  0  0  0  0  0  0  0  0  0  0  0
   -1.6088    2.6065    0.0000 O   0  0  0  0  0  0  0  0  0  0  0  0
   -1.0181   -1.4356    0.0000 N   0  0  0  0  0  0  0  0  0  0  0  0
   -1.2626   -2.2706    0.0000 C   0  0  0  0  0  0  0  0  0  0  0  0
   -1.9345   -1.9244    0.0000 O   0  0  0  0  0  0  0  0  0  0  0  0
   -1.0996   -3.1259    0.0000 C   0  0  2  0  0  0  0  0  0  0  0  0
   -1.9243   -3.2787    0.0000 C   0  0  0  0  0  0  0  0  0  0  0  0
   -2.6168   -2.8102    0.0000 C   0  0  0  0  0  0  0  0  0  0  0  0
   -2.6880   -2.0363    0.0000 C   0  0  0  0  0  0  0  0  0  0  0  0
   -3.5026   -1.8429    0.0000 N   0  0  0  0  0  0  0  0  0  0  0  0
   -3.9404   -2.5557    0.0000 C   0  0  0  0  0  0  0  0  0  0  0  0
   -3.4211   -3.1463    0.0000 N   0  0  0  0  0  0  0  0  0  0  0  0
   -0.6109   -3.7979    0.0000 N   0  0  0  0  0  0  0  0  0  0  0  0
   -0.8451   -4.5718    0.0000 C   0  0  2  0  0  0  0  0  0  0  0  0
   -1.7004   -5.0096    0.0000 O   0  0  0  0  0  0  0  0  0  0  0  0
    0.1730   -5.0910    0.0000 C   0  0  0  0  0  0  0  0  0  0  0  0
    0.7127   -4.3274    0.0000 C   0  0  2  0  0  0  0  0  0  0  0  0
    1.5578   -4.1543    0.0000 N   0  0  0  0  0  0  0  0  0  0  0  0
    2.2298   -3.5942    0.0000 C   0  0  0  0  0  0  0  0  0  0  0  0
    2.8612   -4.1339    0.0000 O   0  0  0  0  0  0  0  0  0  0  0  0
    2.6270   -2.8408    0.0000 C   0  0  1  0  0  0  0  0  0  0  0  0
    3.4619   -3.0852    0.0000 C   0  0  0  0  0  0  0  0  0  0  0  0
    3.9404   -2.4437    0.0000 C   0  0  0  0  0  0  0  0  0  0  0  0
    3.4619   -1.7716    0.0000 C   0  0  0  0  0  0  0  0  0  0  0  0
    2.6982   -2.0161    0.0000 N   0  0  0  0  0  0  0  0  0  0  0  0
    2.3622   -1.2218    0.0000 C   0  0  0  0  0  0  0  0  0  0  0  0
    3.0547   -0.7229    0.0000 O   0  0  0  0  0  0  0  0  0  0  0  0
    0.1629   -3.6554    0.0000 C   0  0  0  0  0  0  0  0  0  0  0  0
    0.5803   -2.8102    0.0000 O   0  0  0  0  0  0  0  0  0  0  0  0
  1  2  1  0  0  0  0
  2  3  2  0  0  0  0
  2  4  1  0  0  0  0
  4  5  1  0  0  0  0
  5  6  2  0  0  0  0
  5  7  1  0  0  0  0
  7  8  1  0  0  0  0
  8  9  1  0  0  0  0
  9 10  1  0  0  0  0
 11 10  1  1  0  0  0
 11 12  1  0  0  0  0
 11 45  1  0  0  0  0
 12 13  1  0  0  0  0
 13 14  2  0  0  0  0
 13 15  1  0  0  0  0
 15 16  1  1  0  0  0
 15 22  1  0  0  0  0
 16 17  1  0  0  0  0
 17 18  1  0  0  0  0
 18 19  1  0  0  0  0
 19 20  1  0  0  0  0
 19 21  2  0  0  0  0
 22 23  1  0  0  0  0
 23 24  2  0  0  0  0
 23 25  1  0  0  0  0
 25 26  1  1  0  0  0
 25 32  1  0  0  0  0
 26 27  1  0  0  0  0
 27 28  2  0  0  0  0
 27 31  1  0  0  0  0
 28 29  1  0  0  0  0
 29 30  1  0  0  0  0
 30 31  2  0  0  0  0
 32 33  1  0  0  0  0
 32 47  1  0  0  0  0
 33 34  1  1  0  0  0
 33 35  1  0  0  0  0
 36 35  1  1  0  0  0
 36 37  1  0  0  0  0
 36 47  1  0  0  0  0
 37 38  1  0  0  0  0
 38 39  2  0  0  0  0
 40 38  1  6  0  0  0
 40 41  1  0  0  0  0
 40 44  1  0  0  0  0
 41 42  1  0  0  0  0
 42 43  1  0  0  0  0
 43 44  1  0  0  0  0
 44 45  1  0  0  0  0
 45 46  2  0  0  0  0
 47 48  2  0  0  0  0
M  END
>  <DATABASE_ID>
DB04350

>  <DATABASE_NAME>
drugbank

>  <SMILES>
CC(=O)NC(=N)NCCC[C@@H]1NC(=O)[C@H](CCCC(O)=O)NC(=O)[C@H](CC2=CNC=N2)N2[C@H](O)C[C@H](NC(=O)[C@H]3CCCN3C1=O)C2=O

>  <INCHI_IDENTIFIER>
InChI=1S/C29H42N10O9/c1-15(40)34-29(30)32-9-3-6-18-27(47)38-10-4-7-20(38)25(45)37-19-12-22(41)39(28(19)48)21(11-16-13-31-14-33-16)26(46)35-17(24(44)36-18)5-2-8-23(42)43/h13-14,17-22,41H,2-12H2,1H3,(H,31,33)(H,35,46)(H,36,44)(H,37,45)(H,42,43)(H3,30,32,34,40)/t17-,18-,19-,20+,21-,22+/m0/s1

>  <INCHI_KEY>
FOZYKTUSOWWQGR-KNPYFFGGSA-N

>  <FORMULA>
C29H42N10O9

>  <MOLECULAR_WEIGHT>
674.7054

>  <EXACT_MASS>
674.313622992

>  <JCHEM_ACCEPTOR_COUNT>
12

>  <JCHEM_ATOM_COUNT>
90

>  <JCHEM_AVERAGE_POLARIZABILITY>
67.00927263374851

>  <JCHEM_BIOAVAILABILITY>
0

>  <JCHEM_DONOR_COUNT>
9

>  <JCHEM_FORMAL_CHARGE>
0

>  <JCHEM_GHOSE_FILTER>
0

>  <JCHEM_IUPAC>
4-[(1S,4R,10S,13S,16S,18R)-10-{3-[(acetamidomethanimidoyl)amino]propyl}-18-hydroxy-16-[(1H-imidazol-4-yl)methyl]-3,9,12,15,20-pentaoxo-2,8,11,14,17-pentaazatricyclo[15.2.1.0^{4,8}]icosan-13-yl]butanoic acid

>  <ALOGPS_LOGP>
-1.70

>  <JCHEM_LOGP>
-5.862153772292043

>  <ALOGPS_LOGS>
-2.85

>  <JCHEM_MDDR_LIKE_RULE>
1

>  <JCHEM_NUMBER_OF_RINGS>
4

>  <JCHEM_PHYSIOLOGICAL_CHARGE>
0

>  <JCHEM_PKA>
10.447076788946688

>  <JCHEM_PKA_STRONGEST_ACIDIC>
3.6254834245422787

>  <JCHEM_PKA_STRONGEST_BASIC>
8.674134836385932

>  <JCHEM_POLAR_SURFACE_AREA>
279.11

>  <JCHEM_REFRACTIVITY>
173.09390000000005

>  <JCHEM_ROTATABLE_BOND_COUNT>
10

>  <JCHEM_RULE_OF_FIVE>
0

>  <ALOGPS_SOLUBILITY>
9.45e-01 g/l

>  <JCHEM_TRADITIONAL_IUPAC>
seocalcitol

>  <JCHEM_VEBER_RULE>
0

>  <DRUGBANK_ID>
DB04350

>  <SECONDARY_ACCESSION_NUMBERS>
EXPT02785

>  <DRUG_GROUPS>
experimental

>  <GENERIC_NAME>
Argadin

$$$$

 OpenBabel05042401512D

 17 16  0  0  1  0  0  0  0  0999 V2000
    1.4289    1.0312    0.0000 C   0  0  2  0  0  0  0  0  0  0  0  0
    0.7145    1.4437    0.0000 C   0  0  0  0  0  0  0  0  0  0  0  0
    1.4289    0.2062    0.0000 N   0  0  0  0  0  0  0  0  0  0  0  0
    2.1434    1.4437    0.0000 C   0  0  0  0  0  0  0  0  0  0  0  0
    0.0000    1.0312    0.0000 C   0  0  0  0  0  0  0  0  0  0  0  0
    0.7145   -0.2062    0.0000 C   0  0  0  0  0  0  0  0  0  0  0  0
    2.8578    1.0312    0.0000 O   0  0  0  0  0  0  0  0  0  0  0  0
    2.1434    2.2688    0.0000 O   0  0  0  0  0  0  0  0  0  0  0  0
   -0.7145    1.4437    0.0000 C   0  0  0  0  0  0  0  0  0  0  0  0
    0.7145   -1.0312    0.0000 C   0  0  0  0  0  0  0  0  0  0  0  0
   -1.4289    1.0312    0.0000 N   0  0  0  0  0  0  0  0  0  0  0  0
    0.0000   -1.4437    0.0000 C   0  0  0  0  0  0  0  0  0  0  0  0
   -2.1434    1.4437    0.0000 C   0  0  0  0  0  0  0  0  0  0  0  0
   -0.7145   -1.0312    0.0000 O   0  0  0  0  0  0  0  0  0  0  0  0
    0.0000   -2.2688    0.0000 O   0  0  0  0  0  0  0  0  0  0  0  0
   -2.8578    1.0312    0.0000 N   0  0  0  0  0  0  0  0  0  0  0  0
   -2.1434    2.2688    0.0000 N   0  0  0  0  0  0  0  0  0  0  0  0
  1  2  1  1  0  0  0
  1  3  1  0  0  0  0
  1  4  1  0  0  0  0
  2  5  1  0  0  0  0
  3  6  1  0  0  0  0
  4  7  1  0  0  0  0
  4  8  2  0  0  0  0
  5  9  1  0  0  0  0
  6 10  1  0  0  0  0
  9 11  1  0  0  0  0
 10 12  1  0  0  0  0
 11 13  1  0  0  0  0
 12 14  1  0  0  0  0
 12 15  2  0  0  0  0
 13 16  1  0  0  0  0
 13 17  2  0  0  0  0
M  END
>  <DATABASE_ID>
DB04189

>  <DATABASE_NAME>
drugbank

>  <SMILES>
NC(=N)NCCC[C@H](NCCC(O)=O)C(O)=O

>  <INCHI_IDENTIFIER>
InChI=1S/C9H18N4O4/c10-9(11)13-4-1-2-6(8(16)17)12-5-3-7(14)15/h6,12H,1-5H2,(H,14,15)(H,16,17)(H4,10,11,13)/t6-/m0/s1

>  <INCHI_KEY>
OHWCFZJEIHZWMN-LURJTMIESA-N

>  <FORMULA>
C9H18N4O4

>  <MOLECULAR_WEIGHT>
246.2636

>  <EXACT_MASS>
246.132805084

>  <JCHEM_ACCEPTOR_COUNT>
8

>  <JCHEM_ATOM_COUNT>
35

>  <JCHEM_AVERAGE_NEUTRAL_MICROSPECIES_CHARGE>
0.0008459999608030344

>  <JCHEM_AVERAGE_POLARIZABILITY>
25.054826724218135

>  <JCHEM_BIOAVAILABILITY>
1

>  <JCHEM_DONOR_COUNT>
6

>  <JCHEM_FORMAL_CHARGE>
0

>  <JCHEM_GHOSE_FILTER>
0

>  <JCHEM_IUPAC>
(2S)-5-carbamimidamido-2-[(2-carboxyethyl)amino]pentanoic acid

>  <ALOGPS_LOGP>
-2.80

>  <JCHEM_LOGP>
-5.457912936141726

>  <ALOGPS_LOGS>
-2.57

>  <JCHEM_MDDR_LIKE_RULE>
0

>  <JCHEM_NEUTRAL_CHARGE>
0

>  <JCHEM_NUMBER_OF_RINGS>
0

>  <JCHEM_PHYSIOLOGICAL_CHARGE>
0

>  <JCHEM_PKA>
3.499989270138008

>  <JCHEM_PKA_STRONGEST_ACIDIC>
1.7230974309979303

>  <JCHEM_PKA_STRONGEST_BASIC>
12.146669858013876

>  <JCHEM_POLAR_SURFACE_AREA>
148.53

>  <JCHEM_REFRACTIVITY>
69.48169999999999

>  <JCHEM_ROTATABLE_BOND_COUNT>
9

>  <JCHEM_RULE_OF_FIVE>
0

>  <ALOGPS_SOLUBILITY>
6.58e-01 g/l

>  <JCHEM_TRADITIONAL_IUPAC>
(2S)-2-[(4-{2-[(6S)-2-amino-4-oxo-1H,5H,6H,7H,8H-pyrido[2,3-d]pyrimidin-6-yl]ethyl}phenyl)formamido]pentanedioic acid

>  <JCHEM_VEBER_RULE>
0

>  <DRUGBANK_ID>
DB04189

>  <SECONDARY_ACCESSION_NUMBERS>
EXPT00953

>  <DRUG_GROUPS>
experimental

>  <GENERIC_NAME>
N(2)-(2-carboxyethyl)-L-arginine

>  <SYNONYMS>
L-N2-(2-Carboxyethyl)arginine; N2-(2-Carboxyethyl)-L-arginine; N2-(2-carboxyethyl)arginine; N2-(carboxyethyl)-L-arginine

$$$$

 OpenBabel05042401512D

 24 25  0  0  1  0  0  0  0  0999 V2000
    0.7144    0.4125    0.0000 O   0  0  0  0  0  0  0  0  0  0  0  0
    0.0000   -0.8250    0.0000 O   0  0  0  0  0  0  0  0  0  0  0  0
    2.1434   -0.4125    0.0000 O   0  0  0  0  0  0  0  0  0  0  0  0
    2.1434   -2.0625    0.0000 O   0  0  0  0  0  0  0  0  0  0  0  0
   -0.7144   -0.4125    0.0000 O   0  0  0  0  0  0  0  0  0  0  0  0
    0.7144   -2.8875    0.0000 O   0  0  0  0  0  0  0  0  0  0  0  0
   -2.1434    0.4125    0.0000 O   0  0  0  0  0  0  0  0  0  0  0  0
    0.7144    2.8875    0.0000 O   0  0  0  0  0  0  0  0  0  0  0  0
   -1.4289   -1.6500    0.0000 O   0  0  0  0  0  0  0  0  0  0  0  0
   -2.1434    2.0625    0.0000 O   0  0  0  0  0  0  0  0  0  0  0  0
   -0.7144    2.0625    0.0000 N   0  0  0  0  0  0  0  0  0  0  0  0
    0.0000    0.8250    0.0000 C   0  0  2  0  0  0  0  0  0  0  0  0
    0.7144   -0.4125    0.0000 C   0  0  2  0  0  0  0  0  0  0  0  0
    1.4290   -0.8250    0.0000 C   0  0  1  0  0  0  0  0  0  0  0  0
    0.0000    1.6500    0.0000 C   0  0  1  0  0  0  0  0  0  0  0  0
    1.4290   -1.6500    0.0000 C   0  0  2  0  0  0  0  0  0  0  0  0
   -0.7144    0.4125    0.0000 C   0  0  1  0  0  0  0  0  0  0  0  0
    0.7144   -2.0625    0.0000 C   0  0  1  0  0  0  0  0  0  0  0  0
    0.0000   -1.6500    0.0000 C   0  0  1  0  0  0  0  0  0  0  0  0
   -1.4289    0.8250    0.0000 C   0  0  2  0  0  0  0  0  0  0  0  0
    0.7144    2.0625    0.0000 C   0  0  0  0  0  0  0  0  0  0  0  0
   -1.4289    1.6500    0.0000 C   0  0  0  0  0  0  0  0  0  0  0  0
   -0.7144   -2.0625    0.0000 C   0  0  0  0  0  0  0  0  0  0  0  0
   -0.7144    2.5740    0.0000 H   0  0  0  0  0  0  0  0  0  0  0  0
  2 13  1  0  0  0  0
  2 19  1  0  0  0  0
  8 21  1  0  0  0  0
  9 23  1  0  0  0  0
 10 22  2  0  0  0  0
 11 15  1  0  0  0  0
 11 22  1  0  0  0  0
 11 24  1  0  0  0  0
 12  1  1  1  0  0  0
 12 15  1  0  0  0  0
 12 17  1  0  0  0  0
 13  1  1  1  0  0  0
 13 14  1  0  0  0  0
 14  3  1  6  0  0  0
 14 16  1  0  0  0  0
 15 21  1  6  0  0  0
 16  4  1  1  0  0  0
 16 18  1  0  0  0  0
 17  5  1  6  0  0  0
 17 20  1  0  0  0  0
 18  6  1  6  0  0  0
 18 19  1  0  0  0  0
 19 23  1  1  0  0  0
 20  7  1  1  0  0  0
 20 22  1  0  0  0  0
M  END
>  <DATABASE_ID>
DB04096

>  <DATABASE_NAME>
drugbank

>  <SMILES>
[H]N1[C@H](CO)[C@@H](O[C@@H]2O[C@H](CO)[C@@H](O)[C@H](O)[C@H]2O)[C@H](O)[C@@H](O)C1=O

>  <INCHI_IDENTIFIER>
InChI=1S/C12H21NO10/c14-1-3-10(7(18)8(19)11(21)13-3)23-12-9(20)6(17)5(16)4(2-15)22-12/h3-10,12,14-20H,1-2H2,(H,13,21)/t3-,4-,5-,6+,7-,8-,9-,10-,12+/m1/s1

>  <INCHI_KEY>
WXSNJJDPPISYEF-ZNLUKOTNSA-N

>  <FORMULA>
C12H21NO10

>  <MOLECULAR_WEIGHT>
339.2958

>  <EXACT_MASS>
339.116545897

>  <JCHEM_ACCEPTOR_COUNT>
10

>  <JCHEM_ATOM_COUNT>
44

>  <JCHEM_AVERAGE_NEUTRAL_MICROSPECIES_CHARGE>
-0.00013725336822689228

>  <JCHEM_AVERAGE_POLARIZABILITY>
30.732472205593726

>  <JCHEM_BIOAVAILABILITY>
1

>  <JCHEM_DONOR_COUNT>
8

>  <JCHEM_FORMAL_CHARGE>
0

>  <JCHEM_GHOSE_FILTER>
0

>  <JCHEM_IUPAC>
(3R,4R,5R,6R)-3,4-dihydroxy-6-(hydroxymethyl)-5-{[(2R,3R,4S,5S,6R)-3,4,5-trihydroxy-6-(hydroxymethyl)oxan-2-yl]oxy}piperidin-2-one

>  <ALOGPS_LOGP>
-2.97

>  <JCHEM_LOGP>
-5.245269435666668

>  <ALOGPS_LOGS>
-0.06

>  <JCHEM_MDDR_LIKE_RULE>
0

>  <JCHEM_NEUTRAL_CHARGE>
0

>  <JCHEM_NUMBER_OF_RINGS>
2

>  <JCHEM_PHYSIOLOGICAL_CHARGE>
0

>  <JCHEM_PKA>
12.102679918073987

>  <JCHEM_PKA_STRONGEST_ACIDIC>
10.90126446348943

>  <JCHEM_PKA_STRONGEST_BASIC>
-2.7920918360416707

>  <JCHEM_POLAR_SURFACE_AREA>
189.17

>  <JCHEM_REFRACTIVITY>
69.14189999999999

>  <JCHEM_ROTATABLE_BOND_COUNT>
4

>  <JCHEM_RULE_OF_FIVE>
0

>  <ALOGPS_SOLUBILITY>
2.94e+02 g/l

>  <JCHEM_TRADITIONAL_IUPAC>
3H,5H-pyrrolo[3,2-d]pyrimidin-4-one

>  <JCHEM_VEBER_RULE>
0

>  <DRUGBANK_ID>
DB04096

>  <SECONDARY_ACCESSION_NUMBERS>
EXPT00398

>  <DRUG_GROUPS>
experimental

>  <GENERIC_NAME>
(2R,3R,4R,5R)-4,5-Dihydroxy-2-(hydroxymethyl)-6-oxo-3-piperidinyl beta-D-glucopyranoside

$$$$

 OpenBabel05042401512D

 40 42  0  0  1  0  0  0  0  0999 V2000
   -0.1357   -3.9683    0.0000 O   0  0  0  0  0  0  0  0  0  0  0  0
    1.2932   -3.9683    0.0000 O   0  0  0  0  0  0  0  0  0  0  0  0
   -1.5647   -5.6183    0.0000 O   0  0  0  0  0  0  0  0  0  0  0  0
   -0.1357   -6.4433    0.0000 O   0  0  0  0  0  0  0  0  0  0  0  0
    1.2932   -5.6183    0.0000 O   0  0  0  0  0  0  0  0  0  0  0  0
   -1.5647   -3.1433    0.0000 O   0  0  0  0  0  0  0  0  0  0  0  0
   -0.8502   -1.9057    0.0000 O   0  0  0  0  0  0  0  0  0  0  0  0
    2.7221   -0.6682    0.0000 O   0  5  0  0  0  0  0  0  0  0  0  0
    3.4366   -1.9057    0.0000 O   0  0  0  0  0  0  0  0  0  0  0  0
   -1.5647    1.8067    0.0000 N   0  0  0  0  0  0  0  0  0  0  0  0
   -1.5647    3.4568    0.0000 N   0  0  0  0  0  0  0  0  0  0  0  0
   -0.1357   -0.6682    0.0000 N   0  0  0  0  0  0  0  0  0  0  0  0
   -2.9937    5.9318    0.0000 N   0  0  0  0  0  0  0  0  0  0  0  0
    2.7221   -1.4932    0.0000 N   0  3  0  0  0  0  0  0  0  0  0  0
   -0.8502   -5.2058    0.0000 C   0  0  2  0  0  0  0  0  0  0  0  0
   -0.1357   -5.6183    0.0000 C   0  0  1  0  0  0  0  0  0  0  0  0
   -0.8502   -4.3808    0.0000 C   0  0  1  0  0  0  0  0  0  0  0  0
    0.5787   -5.2058    0.0000 C   0  0  2  0  0  0  0  0  0  0  0  0
   -2.2791    2.2192    0.0000 C   0  0  0  0  0  0  0  0  0  0  0  0
   -0.8502    2.2192    0.0000 C   0  0  0  0  0  0  0  0  0  0  0  0
   -2.2791    3.0443    0.0000 C   0  0  0  0  0  0  0  0  0  0  0  0
   -0.8502    3.0443    0.0000 C   0  0  0  0  0  0  0  0  0  0  0  0
    0.5787   -4.3808    0.0000 C   0  0  1  0  0  0  0  0  0  0  0  0
   -1.5647    0.9817    0.0000 C   0  0  0  0  0  0  0  0  0  0  0  0
   -1.5647    4.2818    0.0000 C   0  0  0  0  0  0  0  0  0  0  0  0
   -1.5647   -3.9683    0.0000 C   0  0  0  0  0  0  0  0  0  0  0  0
   -0.8502    0.5692    0.0000 C   0  0  0  0  0  0  0  0  0  0  0  0
   -2.2791    4.6943    0.0000 C   0  0  0  0  0  0  0  0  0  0  0  0
   -0.8502   -0.2557    0.0000 C   0  0  0  0  0  0  0  0  0  0  0  0
   -2.2791    5.5193    0.0000 C   0  0  0  0  0  0  0  0  0  0  0  0
    1.2932   -3.1433    0.0000 C   0  0  0  0  0  0  0  0  0  0  0  0
    0.5787   -2.7308    0.0000 C   0  0  0  0  0  0  0  0  0  0  0  0
    0.5787   -1.9057    0.0000 C   0  0  0  0  0  0  0  0  0  0  0  0
   -0.1357   -1.4932    0.0000 C   0  0  0  0  0  0  0  0  0  0  0  0
    2.0076   -2.7308    0.0000 C   0  0  0  0  0  0  0  0  0  0  0  0
    2.0076   -1.9057    0.0000 C   0  0  0  0  0  0  0  0  0  0  0  0
    1.2932   -1.4932    0.0000 C   0  0  0  0  0  0  0  0  0  0  0  0
    0.3072   -0.4125    0.0000 H   0  0  0  0  0  0  0  0  0  0  0  0
   -3.4366    5.6761    0.0000 H   0  0  0  0  0  0  0  0  0  0  0  0
   -2.9937    6.4433    0.0000 H   0  0  0  0  0  0  0  0  0  0  0  0
  1 17  1  0  0  0  0
  1 23  1  0  0  0  0
  2 31  1  0  0  0  0
  6 26  1  0  0  0  0
  7 34  2  0  0  0  0
  8 14  1  0  0  0  0
  9 14  2  0  0  0  0
 10 19  1  0  0  0  0
 10 20  1  0  0  0  0
 10 24  1  0  0  0  0
 11 21  1  0  0  0  0
 11 22  1  0  0  0  0
 11 25  1  0  0  0  0
 12 29  1  0  0  0  0
 12 34  1  0  0  0  0
 12 38  1  0  0  0  0
 13 30  1  0  0  0  0
 13 39  1  0  0  0  0
 13 40  1  0  0  0  0
 14 36  1  0  0  0  0
 15  3  1  1  0  0  0
 15 16  1  0  0  0  0
 15 17  1  0  0  0  0
 16  4  1  1  0  0  0
 16 18  1  0  0  0  0
 17 26  1  1  0  0  0
 18  5  1  6  0  0  0
 18 23  1  0  0  0  0
 19 21  1  0  0  0  0
 20 22  1  0  0  0  0
 23  2  1  1  0  0  0
 24 27  1  0  0  0  0
 25 28  1  0  0  0  0
 27 29  1  0  0  0  0
 28 30  1  0  0  0  0
 31 32  2  0  0  0  0
 31 35  1  0  0  0  0
 32 33  1  0  0  0  0
 33 34  1  0  0  0  0
 33 37  2  0  0  0  0
 35 36  2  0  0  0  0
 36 37  1  0  0  0  0
M  CHG  2   8  -1  14   1
M  END
>  <DATABASE_ID>
DB04073

>  <DATABASE_NAME>
drugbank

>  <SMILES>
[H]N([H])CCCN1CCN(CCCN([H])C(=O)C2=CC(=CC(O[C@@H]3O[C@H](CO)[C@H](O)[C@H](O)[C@H]3O)=C2)[N+]([O-])=O)CC1

>  <INCHI_IDENTIFIER>
InChI=1S/C23H37N5O9/c24-3-1-5-26-7-9-27(10-8-26)6-2-4-25-22(33)15-11-16(28(34)35)13-17(12-15)36-23-21(32)20(31)19(30)18(14-29)37-23/h11-13,18-21,23,29-32H,1-10,14,24H2,(H,25,33)/t18-,19+,20+,21-,23-/m1/s1

>  <INCHI_KEY>
UEIGEWJJVQHIAX-DLBZZEGUSA-N

>  <FORMULA>
C23H37N5O9

>  <MOLECULAR_WEIGHT>
527.568

>  <EXACT_MASS>
527.259127807

>  <JCHEM_ACCEPTOR_COUNT>
12

>  <JCHEM_ATOM_COUNT>
74

>  <JCHEM_AVERAGE_POLARIZABILITY>
54.848903877653136

>  <JCHEM_BIOAVAILABILITY>
0

>  <JCHEM_DONOR_COUNT>
6

>  <JCHEM_FORMAL_CHARGE>
0

>  <JCHEM_GHOSE_FILTER>
0

>  <JCHEM_IUPAC>
N-{3-[4-(3-aminopropyl)piperazin-1-yl]propyl}-3-nitro-5-{[(2S,3R,4S,5R,6R)-3,4,5-trihydroxy-6-(hydroxymethyl)oxan-2-yl]oxy}benzamide

>  <ALOGPS_LOGP>
-0.30

>  <JCHEM_LOGP>
-2.395387279

>  <ALOGPS_LOGS>
-2.14

>  <JCHEM_MDDR_LIKE_RULE>
1

>  <JCHEM_NUMBER_OF_RINGS>
3

>  <JCHEM_PHYSIOLOGICAL_CHARGE>
3

>  <JCHEM_PKA>
12.95316908863819

>  <JCHEM_PKA_STRONGEST_ACIDIC>
12.163508478605266

>  <JCHEM_PKA_STRONGEST_BASIC>
9.875476241833946

>  <JCHEM_POLAR_SURFACE_AREA>
204.12000000000003

>  <JCHEM_REFRACTIVITY>
132.22869999999995

>  <JCHEM_ROTATABLE_BOND_COUNT>
12

>  <JCHEM_RULE_OF_FIVE>
0

>  <ALOGPS_SOLUBILITY>
3.81e+00 g/l

>  <JCHEM_TRADITIONAL_IUPAC>
N-{3-[4-(3-aminopropyl)piperazin-1-yl]propyl}-3-nitro-5-{[(2S,3R,4S,5R,6R)-3,4,5-trihydroxy-6-(hydroxymethyl)oxan-2-yl]oxy}benzamide

>  <JCHEM_VEBER_RULE>
0

>  <DRUGBANK_ID>
DB04073

>  <SECONDARY_ACCESSION_NUMBERS>
EXPT00043

>  <DRUG_GROUPS>
experimental

>  <GENERIC_NAME>
N-{3-[4-(3-amino-propyl)-piperazin-1-yl]-propyl}-3-nitro-5-(galactopyranosyl)-beta-benzamide

$$$$

 OpenBabel05042401512D

 44 48  0  0  1  0  0  0  0  0999 V2000
   -7.8149   -7.9030    0.0000 C   0  0  0  0  0  0  0  0  0  0  0  0
   -8.6354   -7.9892    0.0000 C   0  0  0  0  0  0  0  0  0  0  0  0
   -9.1203   -7.3218    0.0000 C   0  0  0  0  0  0  0  0  0  0  0  0
   -8.7848   -6.5681    0.0000 N   0  0  0  0  0  0  0  0  0  0  0  0
   -7.9643   -6.4819    0.0000 C   0  0  0  0  0  0  0  0  0  0  0  0
   -7.4794   -7.1493    0.0000 C   0  0  0  0  0  0  0  0  0  0  0  0
   -7.6287   -5.7282    0.0000 C   0  0  1  0  0  0  0  0  0  0  0  0
   -8.0412   -5.0137    0.0000 C   0  0  1  0  0  0  0  0  0  0  0  0
   -7.4892   -4.4007    0.0000 C   0  0  1  0  0  0  0  0  0  0  0  0
   -6.7355   -4.7362    0.0000 C   0  0  2  0  0  0  0  0  0  0  0  0
   -6.8217   -5.5567    0.0000 O   0  0  0  0  0  0  0  0  0  0  0  0
   -6.0210   -4.3237    0.0000 C   0  0  0  0  0  0  0  0  0  0  0  0
   -5.3066   -4.7362    0.0000 O   0  0  0  0  0  0  0  0  0  0  0  0
   -4.5921   -4.3237    0.0000 P   0  0  3  0  0  0  0  0  0  0  0  0
   -5.0046   -3.6092    0.0000 O   0  0  0  0  0  0  0  0  0  0  0  0
   -4.1796   -5.0382    0.0000 O   0  0  0  0  0  0  0  0  0  0  0  0
   -3.8776   -3.9112    0.0000 O   0  0  0  0  0  0  0  0  0  0  0  0
   -3.1632   -4.3237    0.0000 P   0  0  3  0  0  0  0  0  0  0  0  0
   -3.5757   -5.0382    0.0000 O   0  0  0  0  0  0  0  0  0  0  0  0
   -2.7507   -3.6092    0.0000 O   0  0  0  0  0  0  0  0  0  0  0  0
   -2.4487   -4.7362    0.0000 O   0  0  0  0  0  0  0  0  0  0  0  0
   -1.7342   -4.3237    0.0000 C   0  0  0  0  0  0  0  0  0  0  0  0
   -1.0197   -4.7362    0.0000 C   0  0  2  0  0  0  0  0  0  0  0  0
   -0.2661   -4.4007    0.0000 C   0  0  2  0  0  0  0  0  0  0  0  0
    0.2860   -5.0137    0.0000 C   0  0  2  0  0  0  0  0  0  0  0  0
   -0.1265   -5.7282    0.0000 C   0  0  1  0  0  0  0  0  0  0  0  0
   -0.9335   -5.5567    0.0000 O   0  0  0  0  0  0  0  0  0  0  0  0
    0.2090   -6.4819    0.0000 N   0  0  0  0  0  0  0  0  0  0  0  0
   -0.2035   -7.1964    0.0000 C   0  0  0  0  0  0  0  0  0  0  0  0
    0.3486   -7.8095    0.0000 N   0  0  0  0  0  0  0  0  0  0  0  0
    1.1022   -7.4739    0.0000 C   0  0  0  0  0  0  0  0  0  0  0  0
    1.0160   -6.6534    0.0000 C   0  0  0  0  0  0  0  0  0  0  0  0
    1.6834   -6.1685    0.0000 N   0  0  0  0  0  0  0  0  0  0  0  0
    2.4371   -6.5041    0.0000 C   0  0  0  0  0  0  0  0  0  0  0  0
    2.5233   -7.3245    0.0000 N   0  0  0  0  0  0  0  0  0  0  0  0
    1.8559   -7.8095    0.0000 C   0  0  0  0  0  0  0  0  0  0  0  0
    1.9421   -8.6299    0.0000 N   0  0  0  0  0  0  0  0  0  0  0  0
    1.1064   -4.9275    0.0000 O   0  0  0  0  0  0  0  0  0  0  0  0
   -0.0945   -3.5937    0.0000 O   0  0  0  0  0  0  0  0  0  0  0  0
   -7.6607   -3.5937    0.0000 O   0  0  0  0  0  0  0  0  0  0  0  0
   -8.8617   -4.9275    0.0000 O   0  0  0  0  0  0  0  0  0  0  0  0
   -9.9408   -7.4080    0.0000 C   0  0  0  0  0  0  0  0  0  0  0  0
  -10.4257   -6.7406    0.0000 O   0  0  0  0  0  0  0  0  0  0  0  0
  -10.2764   -8.1617    0.0000 N   0  0  0  0  0  0  0  0  0  0  0  0
  1  2  2  0  0  0  0
  1  6  1  0  0  0  0
  2  3  1  0  0  0  0
  3  4  2  0  0  0  0
  3 42  1  0  0  0  0
  4  5  1  0  0  0  0
  5  6  2  0  0  0  0
  7  5  1  1  0  0  0
  7  8  1  0  0  0  0
  7 11  1  0  0  0  0
  8  9  1  0  0  0  0
  8 41  1  6  0  0  0
  9 10  1  0  0  0  0
  9 40  1  6  0  0  0
 10 11  1  0  0  0  0
 10 12  1  1  0  0  0
 12 13  1  0  0  0  0
 13 14  1  0  0  0  0
 14 15  2  0  0  0  0
 14 16  1  0  0  0  0
 14 17  1  0  0  0  0
 17 18  1  0  0  0  0
 18 19  2  0  0  0  0
 18 20  1  0  0  0  0
 18 21  1  0  0  0  0
 21 22  1  0  0  0  0
 23 22  1  6  0  0  0
 23 24  1  0  0  0  0
 23 27  1  0  0  0  0
 24 25  1  0  0  0  0
 24 39  1  1  0  0  0
 25 26  1  0  0  0  0
 25 38  1  1  0  0  0
 26 27  1  0  0  0  0
 26 28  1  6  0  0  0
 28 29  1  0  0  0  0
 28 32  1  0  0  0  0
 29 30  2  0  0  0  0
 30 31  1  0  0  0  0
 31 32  2  0  0  0  0
 31 36  1  0  0  0  0
 32 33  1  0  0  0  0
 33 34  2  0  0  0  0
 34 35  1  0  0  0  0
 35 36  2  0  0  0  0
 36 37  1  0  0  0  0
 42 43  2  0  0  0  0
 42 44  1  0  0  0  0
M  END
>  <DATABASE_ID>
DB04071

>  <DATABASE_NAME>
drugbank

>  <SMILES>
NC(=O)C1=NC(=CC=C1)[C@@H]1O[C@H](COP(O)(=O)OP(O)(=O)OC[C@H]2O[C@H]([C@H](O)[C@@H]2O)N2C=NC3=C2N=CN=C3N)[C@@H](O)[C@H]1O

>  <INCHI_IDENTIFIER>
InChI=1S/C21H27N7O14P2/c22-18-12-20(25-6-24-18)28(7-26-12)21-16(32)14(30)11(41-21)5-39-44(36,37)42-43(34,35)38-4-10-13(29)15(31)17(40-10)8-2-1-3-9(27-8)19(23)33/h1-3,6-7,10-11,13-17,21,29-32H,4-5H2,(H2,23,33)(H,34,35)(H,36,37)(H2,22,24,25)/t10-,11-,13-,14-,15-,16-,17+,21-/m1/s1

>  <INCHI_KEY>
LFERELMXERXKKQ-KMXXXSRASA-N

>  <FORMULA>
C21H27N7O14P2

>  <MOLECULAR_WEIGHT>
663.4251

>  <EXACT_MASS>
663.109121631

>  <JCHEM_ACCEPTOR_COUNT>
16

>  <JCHEM_ATOM_COUNT>
71

>  <JCHEM_AVERAGE_NEUTRAL_MICROSPECIES_CHARGE>
-1.9916732580806311

>  <JCHEM_AVERAGE_POLARIZABILITY>
56.7212478901127

>  <JCHEM_BIOAVAILABILITY>
0

>  <JCHEM_DONOR_COUNT>
8

>  <JCHEM_FORMAL_CHARGE>
0

>  <JCHEM_GHOSE_FILTER>
0

>  <JCHEM_IUPAC>
{[(2R,3S,4R,5R)-5-(6-amino-9H-purin-9-yl)-3,4-dihydroxyoxolan-2-yl]methoxy}[({[(2R,3S,4R,5S)-5-(6-carbamoylpyridin-2-yl)-3,4-dihydroxyoxolan-2-yl]methoxy}(hydroxy)phosphoryl)oxy]phosphinic acid

>  <ALOGPS_LOGP>
-1.57

>  <JCHEM_LOGP>
-5.7606009714732975

>  <ALOGPS_LOGS>
-2.32

>  <JCHEM_MDDR_LIKE_RULE>
1

>  <JCHEM_NEUTRAL_CHARGE>
-2

>  <JCHEM_NUMBER_OF_RINGS>
5

>  <JCHEM_PHYSIOLOGICAL_CHARGE>
-2

>  <JCHEM_PKA>
2.2830324604319787

>  <JCHEM_PKA_STRONGEST_ACIDIC>
1.8542529788150084

>  <JCHEM_PKA_STRONGEST_BASIC>
4.9307315511348095

>  <JCHEM_POLAR_SURFACE_AREA>
327.27

>  <JCHEM_REFRACTIVITY>
140.47859999999997

>  <JCHEM_ROTATABLE_BOND_COUNT>
11

>  <JCHEM_RULE_OF_FIVE>
0

>  <ALOGPS_SOLUBILITY>
3.15e+00 g/l

>  <JCHEM_TRADITIONAL_IUPAC>
biotin

>  <JCHEM_VEBER_RULE>
0

>  <DRUGBANK_ID>
DB04071

>  <SECONDARY_ACCESSION_NUMBERS>
EXPT02487

>  <DRUG_GROUPS>
experimental

>  <GENERIC_NAME>
Cpad

$$$$

 OpenBabel05042401512D

 12 11  0  0  1  0  0  0  0  0999 V2000
    2.1434    1.0312    0.0000 O   0  0  0  0  0  0  0  0  0  0  0  0
    2.1434    0.2062    0.0000 C   0  0  0  0  0  0  0  0  0  0  0  0
    2.8579   -0.2062    0.0000 O   0  0  0  0  0  0  0  0  0  0  0  0
    1.4290   -0.2062    0.0000 C   0  0  2  0  0  0  0  0  0  0  0  0
    1.4290   -1.0312    0.0000 N   0  0  0  0  0  0  0  0  0  0  0  0
    0.7145    0.2062    0.0000 C   0  0  0  0  0  0  0  0  0  0  0  0
    0.0000   -0.2062    0.0000 C   0  0  0  0  0  0  0  0  0  0  0  0
   -0.7143    0.2062    0.0000 C   0  0  0  0  0  0  0  0  0  0  0  0
   -1.4288   -0.2062    0.0000 N   0  0  0  0  0  0  0  0  0  0  0  0
   -2.1433    0.2062    0.0000 C   0  0  0  0  0  0  0  0  0  0  0  0
   -2.1433    1.0312    0.0000 N   0  0  0  0  0  0  0  0  0  0  0  0
   -2.8579   -0.2062    0.0000 N   0  0  0  0  0  0  0  0  0  0  0  0
  2  1  2  0  0  0  0
  3  2  1  0  0  0  0
  4  2  1  6  0  0  0
  4  5  1  0  0  0  0
  6  4  1  0  0  0  0
  7  6  1  0  0  0  0
  7  8  1  0  0  0  0
  9  8  1  0  0  0  0
 10  9  1  0  0  0  0
 11 10  2  0  0  0  0
 12 10  1  0  0  0  0
M  END
>  <DATABASE_ID>
DB04027

>  <DATABASE_NAME>
drugbank

>  <SMILES>
N[C@H](CCCNC(N)=N)C(O)=O

>  <INCHI_IDENTIFIER>
InChI=1S/C6H14N4O2/c7-4(5(11)12)2-1-3-10-6(8)9/h4H,1-3,7H2,(H,11,12)(H4,8,9,10)/t4-/m1/s1

>  <INCHI_KEY>
ODKSFYDXXFIFQN-SCSAIBSYSA-N

>  <FORMULA>
C6H14N4O2

>  <MOLECULAR_WEIGHT>
174.201

>  <EXACT_MASS>
174.111675712

>  <JCHEM_ACCEPTOR_COUNT>
6

>  <JCHEM_ATOM_COUNT>
26

>  <JCHEM_AVERAGE_POLARIZABILITY>
18.044088446937554

>  <JCHEM_BIOAVAILABILITY>
1

>  <JCHEM_DONOR_COUNT>
5

>  <JCHEM_FORMAL_CHARGE>
0

>  <JCHEM_GHOSE_FILTER>
0

>  <JCHEM_IUPAC>
(2R)-2-amino-5-carbamimidamidopentanoic acid

>  <ALOGPS_LOGP>
-3.49

>  <JCHEM_LOGP>
-3.1559373774200568

>  <ALOGPS_LOGS>
-1.88

>  <JCHEM_MDDR_LIKE_RULE>
0

>  <JCHEM_NUMBER_OF_RINGS>
0

>  <JCHEM_PHYSIOLOGICAL_CHARGE>
1

>  <JCHEM_PKA_STRONGEST_ACIDIC>
2.4118378885304885

>  <JCHEM_PKA_STRONGEST_BASIC>
12.41100429474531

>  <JCHEM_POLAR_SURFACE_AREA>
125.22

>  <JCHEM_REFRACTIVITY>
53.9231

>  <JCHEM_ROTATABLE_BOND_COUNT>
5

>  <JCHEM_RULE_OF_FIVE>
1

>  <ALOGPS_SOLUBILITY>
2.28e+00 g/l

>  <JCHEM_TRADITIONAL_IUPAC>
[(2R)-2-(4-aminobutanamido)-3-{[(4-methoxyphenyl)methyl]sulfanyl}propanamido]acetic acid

>  <JCHEM_VEBER_RULE>
0

>  <DRUGBANK_ID>
DB04027

>  <SECONDARY_ACCESSION_NUMBERS>
EXPT01113

>  <DRUG_GROUPS>
experimental

>  <GENERIC_NAME>
D-arginine

>  <SYNONYMS>
(2R)-2-amino-5-(carbamimidamido)pentanoic acid; (2R)-2-amino-5-guanidinopentanoic acid; (R)-2-amino-5-guanidinopentanoic acid; D-2-Amino-5-guanidinovaleric acid; D-Arginin

$$$$

 OpenBabel05042401512D

 26 28  0  0  0  0  0  0  0  0999 V2000
   -0.0921    0.0381    0.0000 Zn  0  2  0  0  0 15  0  0  0  0  0  0
   -0.7822   -0.3602    0.0000 N   0  5  0  0  0  0  0  0  0  0  0  0
   -0.0921    0.8348    0.0000 N   0  5  0  0  0  0  0  0  0  0  0  0
   -2.0595   -0.4934    0.0000 N   0  0  0  0  0  0  0  0  0  0  0  0
   -0.6155    2.0076    0.0000 N   0  0  0  0  0  0  0  0  0  0  0  0
   -2.7256   -3.4425    0.0000 N   0  3  0  0  0  0  0  0  0  0  0  0
    1.6054    4.0591    0.0000 N   0  3  0  0  0  0  0  0  0  0  0  0
   -1.4675   -4.0097    0.0000 N   0  0  0  0  0  0  0  0  0  0  0  0
    2.7257    3.2531    0.0000 N   0  0  0  0  0  0  0  0  0  0  0  0
   -1.4722    0.8348    0.0000 C   0  0  0  0  0  0  0  0  0  0  0  0
   -1.4722    0.0381    0.0000 C   0  0  0  0  0  0  0  0  0  0  0  0
   -0.7822    1.2332    0.0000 C   0  0  0  0  0  0  0  0  0  0  0  0
   -0.9489   -1.1346    0.0000 C   0  0  0  0  0  0  0  0  0  0  0  0
    0.4950    1.3664    0.0000 C   0  0  0  0  0  0  0  0  0  0  0  0
   -1.7367   -1.2167    0.0000 C   0  0  0  0  0  0  0  0  0  0  0  0
    0.1722    2.0897    0.0000 C   0  0  0  0  0  0  0  0  0  0  0  0
   -0.4542   -1.7949    0.0000 C   0  0  0  0  0  0  0  0  0  0  0  0
    1.3143    1.2682    0.0000 C   0  0  0  0  0  0  0  0  0  0  0  0
   -2.0845   -1.9648    0.0000 C   0  0  0  0  0  0  0  0  0  0  0  0
    0.6463    2.7650    0.0000 C   0  0  0  0  0  0  0  0  0  0  0  0
   -1.6053   -2.6365    0.0000 C   0  0  0  0  0  0  0  0  0  0  0  0
    1.4675    2.6858    0.0000 C   0  0  0  0  0  0  0  0  0  0  0  0
   -0.7846   -2.5510    0.0000 C   0  0  0  0  0  0  0  0  0  0  0  0
    1.8037    1.9324    0.0000 C   0  0  0  0  0  0  0  0  0  0  0  0
   -1.9328   -3.3628    0.0000 C   0  0  0  0  0  0  0  0  0  0  0  0
    1.9329    3.3327    0.0000 C   0  0  0  0  0  0  0  0  0  0  0  0
  2 11  1  0  0  0  0
  2 13  1  0  0  0  0
  3 12  1  0  0  0  0
  3 14  1  0  0  0  0
  4 11  2  0  0  0  0
  4 15  1  0  0  0  0
  5 12  2  0  0  0  0
  5 16  1  0  0  0  0
  6 25  2  0  0  0  0
  7 26  2  0  0  0  0
  8 25  1  0  0  0  0
  9 26  1  0  0  0  0
 10 11  1  0  0  0  0
 10 12  1  0  0  0  0
 13 15  2  0  0  0  0
 13 17  1  0  0  0  0
 14 16  2  0  0  0  0
 14 18  1  0  0  0  0
 15 19  1  0  0  0  0
 16 20  1  0  0  0  0
 17 23  2  0  0  0  0
 18 24  2  0  0  0  0
 19 21  2  0  0  0  0
 20 22  2  0  0  0  0
 21 23  1  0  0  0  0
 21 25  1  0  0  0  0
 22 24  1  0  0  0  0
 22 26  1  0  0  0  0
M  CHG  5   1   2   2  -1   3  -1   6   1   7   1
M  END
>  <DATABASE_ID>
DB04008

>  <DATABASE_NAME>
drugbank

>  <SMILES>
[Zn++].NC(=[NH2+])C1=CC2=C([N-]C(CC3=NC4=C([N-]3)C=CC(=C4)C(N)=[NH2+])=N2)C=C1

>  <INCHI_IDENTIFIER>
InChI=1S/C17H14N8.Zn/c18-16(19)8-1-3-10-12(5-8)24-14(22-10)7-15-23-11-4-2-9(17(20)21)6-13(11)25-15;/h1-6H,7H2,(H6-2,18,19,20,21,22,23,24,25);/q-2;+2/p+2

>  <INCHI_KEY>
MXICWYSXOKPLOW-UHFFFAOYSA-P

>  <FORMULA>
C17H16N8Zn

>  <MOLECULAR_WEIGHT>
397.772

>  <EXACT_MASS>
396.07893913

>  <JCHEM_ACCEPTOR_COUNT>
6

>  <JCHEM_ATOM_COUNT>
42

>  <JCHEM_AVERAGE_NEUTRAL_MICROSPECIES_CHARGE>
2.025474632967144

>  <JCHEM_AVERAGE_POLARIZABILITY>
36.24290468605708

>  <JCHEM_BIOAVAILABILITY>
1

>  <JCHEM_DONOR_COUNT>
4

>  <JCHEM_FORMAL_CHARGE>
2

>  <JCHEM_GHOSE_FILTER>
1

>  <JCHEM_IUPAC>
zinc(2+) 5-[amino(iminiumyl)methyl]-2-({5-[amino(iminiumyl)methyl]-1H-1,3-benzodiazol-1-id-2-yl}methyl)-1H-1,3-benzodiazol-1-ide

>  <ALOGPS_LOGP>
0.35

>  <JCHEM_LOGP>
0.14279598387979064

>  <ALOGPS_LOGS>
-3.32

>  <JCHEM_MDDR_LIKE_RULE>
0

>  <JCHEM_NEUTRAL_CHARGE>
2

>  <JCHEM_NUMBER_OF_RINGS>
4

>  <JCHEM_PHYSIOLOGICAL_CHARGE>
2

>  <JCHEM_PKA>
12.221212751583314

>  <JCHEM_PKA_STRONGEST_ACIDIC>
11.487384267438653

>  <JCHEM_PKA_STRONGEST_BASIC>
10.960135259592338

>  <JCHEM_POLAR_SURFACE_AREA>
154.78000000000003

>  <JCHEM_REFRACTIVITY>
118.6852

>  <JCHEM_ROTATABLE_BOND_COUNT>
4

>  <JCHEM_RULE_OF_FIVE>
1

>  <ALOGPS_SOLUBILITY>
2.50e-01 g/l

>  <JCHEM_TRADITIONAL_IUPAC>
2-amino-9-[(2R,3R,4S,5R)-5-({[({[(2R,3S,4R,5R)-5-(2-amino-6-oxo-3H-purin-9-yl)-3,4-dihydroxyoxolan-2-yl]methoxy(hydroxy)phosphoryl}oxy(hydroxy)phosphoryl)oxy(hydroxy)phosphoryl]oxy}methyl)-3,4-dihydroxyoxolan-2-yl]-7-methyl-6-oxo-3H-9lambda5-purin-9-ylium

>  <JCHEM_VEBER_RULE>
0

>  <DRUGBANK_ID>
DB04008

>  <SECONDARY_ACCESSION_NUMBERS>
EXPT00628

>  <DRUG_GROUPS>
experimental

>  <GENERIC_NAME>
Zinc;[amino-[2-[[5-[amino(azaniumylidene)methyl]benzimidazol-1-id-2-yl]methyl]benzimidazol-1-id-5-yl]methylidene]azanium

>  <SYNONYMS>
bis(5-amidino-benzimidazolyl)methane zinc

$$$$

 OpenBabel05042401512D

 13 12  0  0  1  0  0  0  0  0999 V2000
   -1.7861    0.2062    0.0000 N   0  0  0  0  0  0  0  0  0  0  0  0
    2.5007    0.2062    0.0000 C   0  0  0  0  0  0  0  0  0  0  0  0
    3.2152   -0.2062    0.0000 O   0  0  0  0  0  0  0  0  0  0  0  0
   -1.0717   -0.2062    0.0000 C   0  0  0  0  0  0  0  0  0  0  0  0
    1.7861   -0.2062    0.0000 C   0  0  1  0  0  0  0  0  0  0  0  0
    2.5007    1.0312    0.0000 O   0  0  0  0  0  0  0  0  0  0  0  0
    1.7861   -1.0312    0.0000 N   0  0  0  0  0  0  0  0  0  0  0  0
   -0.3572    0.2062    0.0000 C   0  0  0  0  0  0  0  0  0  0  0  0
    1.0717    0.2062    0.0000 C   0  0  0  0  0  0  0  0  0  0  0  0
    0.3572   -0.2062    0.0000 C   0  0  0  0  0  0  0  0  0  0  0  0
   -2.5006   -0.2062    0.0000 C   0  0  0  0  0  0  0  0  0  0  0  0
   -3.2152    0.2062    0.0000 N   0  0  0  0  0  0  0  0  0  0  0  0
   -2.5006   -1.0312    0.0000 N   0  0  0  0  0  0  0  0  0  0  0  0
  1 11  1  0  0  0  0
  3  2  1  0  0  0  0
  4  1  1  0  0  0  0
  5  2  1  1  0  0  0
  5  7  1  0  0  0  0
  6  2  2  0  0  0  0
  8  4  1  0  0  0  0
  9  5  1  0  0  0  0
 10  8  1  0  0  0  0
 10  9  1  0  0  0  0
 11 12  1  0  0  0  0
 11 13  2  0  0  0  0
M  END
>  <DATABASE_ID>
DB03974

>  <DATABASE_NAME>
drugbank

>  <SMILES>
N[C@@H](CCCCNC(N)=N)C(O)=O

>  <INCHI_IDENTIFIER>
InChI=1S/C7H16N4O2/c8-5(6(12)13)3-1-2-4-11-7(9)10/h5H,1-4,8H2,(H,12,13)(H4,9,10,11)/t5-/m0/s1

>  <INCHI_KEY>
QUOGESRFPZDMMT-YFKPBYRVSA-N

>  <FORMULA>
C7H16N4O2

>  <MOLECULAR_WEIGHT>
188.2275

>  <EXACT_MASS>
188.127325776

>  <JCHEM_ACCEPTOR_COUNT>
6

>  <JCHEM_ATOM_COUNT>
29

>  <JCHEM_AVERAGE_POLARIZABILITY>
20.03779635520079

>  <JCHEM_BIOAVAILABILITY>
1

>  <JCHEM_DONOR_COUNT>
5

>  <JCHEM_FORMAL_CHARGE>
0

>  <JCHEM_GHOSE_FILTER>
0

>  <JCHEM_IUPAC>
(2S)-2-amino-6-carbamimidamidohexanoic acid

>  <ALOGPS_LOGP>
-3.73

>  <JCHEM_LOGP>
-2.722308785706772

>  <ALOGPS_LOGS>
-2.07

>  <JCHEM_MDDR_LIKE_RULE>
0

>  <JCHEM_NUMBER_OF_RINGS>
0

>  <JCHEM_PHYSIOLOGICAL_CHARGE>
1

>  <JCHEM_PKA_STRONGEST_ACIDIC>
2.4910361487073844

>  <JCHEM_PKA_STRONGEST_BASIC>
12.302434226350789

>  <JCHEM_POLAR_SURFACE_AREA>
125.22

>  <JCHEM_REFRACTIVITY>
58.5241

>  <JCHEM_ROTATABLE_BOND_COUNT>
6

>  <JCHEM_RULE_OF_FIVE>
1

>  <ALOGPS_SOLUBILITY>
1.58e+00 g/l

>  <JCHEM_TRADITIONAL_IUPAC>
L-homoarginine

>  <JCHEM_VEBER_RULE>
0

>  <DRUGBANK_ID>
DB03974

>  <SECONDARY_ACCESSION_NUMBERS>
EXPT01779

>  <DRUG_GROUPS>
experimental

>  <GENERIC_NAME>
L-homoarginine

>  <SYNONYMS>
Homo-L-arginine; Homoarginine; N6-(Aminoiminomethyl)-L-lysine; N6-amidino-L-Lysine; N6-amidino-Lysine

$$$$

 OpenBabel05042401512D

 23 20  0  0  0  0  0  0  0  0999 V2000
    0.6674    0.2169    0.0000 C   0  0  0  0  0  0  0  0  0  0  0  0
   -0.0000    0.7018    0.0000 C   0  0  0  0  0  0  0  0  0  0  0  0
   -0.4125   -0.5678    0.0000 C   0  0  0  0  0  0  0  0  0  0  0  0
    0.4125   -0.5678    0.0000 N   0  0  0  0  0  0  0  0  0  0  0  0
   -0.6674    0.2169    0.0000 N   0  5  0  0  0  0  0  0  0  0  0  0
    4.1237    0.2169    0.0000 C   0  0  0  0  0  0  0  0  0  0  0  0
    3.4563    0.7018    0.0000 C   0  0  0  0  0  0  0  0  0  0  0  0
    3.0438   -0.5678    0.0000 C   0  0  0  0  0  0  0  0  0  0  0  0
    3.8688   -0.5678    0.0000 N   0  0  0  0  0  0  0  0  0  0  0  0
    2.7889    0.2169    0.0000 N   0  5  0  0  0  0  0  0  0  0  0  0
    7.5801    0.2169    0.0000 C   0  0  0  0  0  0  0  0  0  0  0  0
    6.9126    0.7018    0.0000 C   0  0  0  0  0  0  0  0  0  0  0  0
    6.5001   -0.5678    0.0000 C   0  0  0  0  0  0  0  0  0  0  0  0
    7.3251   -0.5678    0.0000 N   0  0  0  0  0  0  0  0  0  0  0  0
    6.2452    0.2169    0.0000 N   0  5  0  0  0  0  0  0  0  0  0  0
    0.6674   -2.7027    0.0000 C   0  0  0  0  0  0  0  0  0  0  0  0
   -0.0000   -2.2178    0.0000 C   0  0  0  0  0  0  0  0  0  0  0  0
   -0.4125   -3.4873    0.0000 C   0  0  0  0  0  0  0  0  0  0  0  0
    0.4125   -3.4873    0.0000 N   0  0  0  0  0  0  0  0  0  0  0  0
   -0.6674   -2.7027    0.0000 N   0  5  0  0  0  0  0  0  0  0  0  0
    3.0246   -2.9195    0.0000 Cu  0  0  0  0  0 15  0  0  0  0  0  0
    5.2639   -2.9195    0.0000 O   0  0  0  0  0  0  0  0  0  0  0  0
    0.0000   -5.1373    0.0000 O   0  0  0  0  0  0  0  0  0  0  0  0
  2  1  2  0  0  0  0
  4  1  1  0  0  0  0
  4  3  2  0  0  0  0
  5  2  1  0  0  0  0
  5  3  1  0  0  0  0
  7  6  2  0  0  0  0
  9  6  1  0  0  0  0
  9  8  2  0  0  0  0
 10  7  1  0  0  0  0
 10  8  1  0  0  0  0
 12 11  2  0  0  0  0
 14 11  1  0  0  0  0
 14 13  2  0  0  0  0
 15 12  1  0  0  0  0
 15 13  1  0  0  0  0
 17 16  2  0  0  0  0
 19 16  1  0  0  0  0
 19 18  2  0  0  0  0
 20 17  1  0  0  0  0
 20 18  1  0  0  0  0
M  CHG  5   5  -1  10  -1  15  -1  20  -1  21   4
M  END
>  <DATABASE_ID>
DB03840

>  <DATABASE_NAME>
drugbank

>  <SMILES>
O.O.[Cu+4].[N-]1C=CN=C1.[N-]1C=CN=C1.[N-]1C=CN=C1.[N-]1C=CN=C1

>  <INCHI_IDENTIFIER>
InChI=1S/4C3H3N2.Cu.2H2O/c4*1-2-5-3-4-1;;;/h4*1-3H;;2*1H2/q4*-1;+4;;

>  <INCHI_KEY>
QHMVDLPUUJNKGZ-UHFFFAOYSA-N

>  <FORMULA>
C12H16CuN8O2

>  <MOLECULAR_WEIGHT>
367.854

>  <EXACT_MASS>
367.069222875

>  <JCHEM_ACCEPTOR_COUNT>
2

>  <JCHEM_ATOM_COUNT>
39

>  <JCHEM_AVERAGE_NEUTRAL_MICROSPECIES_CHARGE>
0.48109834624903136

>  <JCHEM_AVERAGE_POLARIZABILITY>
6.181102144648499

>  <JCHEM_BIOAVAILABILITY>
1

>  <JCHEM_DONOR_COUNT>
0

>  <JCHEM_FORMAL_CHARGE>
0

>  <JCHEM_GHOSE_FILTER>
0

>  <JCHEM_IUPAC>
lambda4-copper(4+) tetrakis(1H-imidazol-1-ide) dihydrate

>  <ALOGPS_LOGP>
0.47

>  <JCHEM_LOGP>
-0.145224207

>  <ALOGPS_LOGS>
-2.20

>  <JCHEM_MDDR_LIKE_RULE>
0

>  <JCHEM_NEUTRAL_CHARGE>
1

>  <JCHEM_NUMBER_OF_RINGS>
4

>  <JCHEM_PHYSIOLOGICAL_CHARGE>
0

>  <JCHEM_PKA_STRONGEST_ACIDIC>
13.396939092733913

>  <JCHEM_PKA_STRONGEST_BASIC>
6.967149345274132

>  <JCHEM_POLAR_SURFACE_AREA>
25.78

>  <JCHEM_REFRACTIVITY>
19.622999999999998

>  <JCHEM_ROTATABLE_BOND_COUNT>
0

>  <JCHEM_RULE_OF_FIVE>
1

>  <ALOGPS_SOLUBILITY>
2.12e+00 g/l

>  <JCHEM_TRADITIONAL_IUPAC>
biotin

>  <JCHEM_VEBER_RULE>
1

>  <DRUGBANK_ID>
DB03840

>  <SECONDARY_ACCESSION_NUMBERS>
EXPT01866

>  <DRUG_GROUPS>
experimental

>  <GENERIC_NAME>
Tetra(Imidazole)Diaquacopper (Ii)

$$$$

 OpenBabel05042401512D

 37 40  0  0  1  0  0  0  0  0999 V2000
    1.9478    0.4727    0.0000 C   0  0  0  0  0  0  0  0  0  0  0  0
    1.2074    0.1195    0.0000 C   0  0  2  0  0  0  0  0  0  0  0  0
    1.0251   -0.6892    0.0000 C   0  0  0  0  0  0  0  0  0  0  0  0
    1.5377   -1.3383    0.0000 C   0  0  0  0  0  0  0  0  0  0  0  0
    2.3579   -1.3383    0.0000 C   0  0  0  0  0  0  0  0  0  0  0  0
    2.6882    0.1195    0.0000 C   0  0  0  0  0  0  0  0  0  0  0  0
    1.9478    1.2928    0.0000 O   0  0  0  0  0  0  0  0  0  0  0  0
    2.8705   -0.6892    0.0000 N   0  0  0  0  0  0  0  0  0  0  0  0
    4.3057   -1.5093    0.0000 C   0  0  0  0  0  0  0  0  0  0  0  0
    5.6954   -1.8282    0.0000 C   0  0  0  0  0  0  0  0  0  0  0  0
    4.1235   -2.3180    0.0000 C   0  0  0  0  0  0  0  0  0  0  0  0
    4.7271   -2.8761    0.0000 C   0  0  0  0  0  0  0  0  0  0  0  0
    5.5131   -2.6370    0.0000 C   0  0  0  0  0  0  0  0  0  0  0  0
    5.0916   -1.2700    0.0000 N   0  0  0  0  0  0  0  0  0  0  0  0
    3.5880   -1.0992    0.0000 S   0  0  0  0  0  0  0  0  0  0  0  0
    3.9981   -0.3929    0.0000 O   0  0  0  0  0  0  0  0  0  0  0  0
    3.1780   -1.8168    0.0000 O   0  0  0  0  0  0  0  0  0  0  0  0
    0.5581    0.6322    0.0000 N   0  0  0  0  0  0  0  0  0  0  0  0
   -0.1481    0.2107    0.0000 C   0  0  0  0  0  0  0  0  0  0  0  0
   -0.1481   -0.6094    0.0000 O   0  0  0  0  0  0  0  0  0  0  0  0
   -0.8656    0.6322    0.0000 C   0  0  2  0  0  0  0  0  0  0  0  0
   -0.8656    1.4523    0.0000 C   0  0  0  0  0  0  0  0  0  0  0  0
   -1.2757    2.1700    0.0000 C   0  0  0  0  0  0  0  0  0  0  0  0
   -0.8656    2.8761    0.0000 C   0  0  0  0  0  0  0  0  0  0  0  0
   -2.0959    2.1700    0.0000 C   0  0  0  0  0  0  0  0  0  0  0  0
   -1.5719    0.2107    0.0000 N   0  0  0  0  0  0  0  0  0  0  0  0
   -2.2895    0.6322    0.0000 C   0  0  0  0  0  0  0  0  0  0  0  0
   -2.2895    1.4523    0.0000 O   0  0  0  0  0  0  0  0  0  0  0  0
   -3.0071    0.2107    0.0000 C   0  0  0  0  0  0  0  0  0  0  0  0
   -3.6678    0.7005    0.0000 C   0  0  0  0  0  0  0  0  0  0  0  0
   -3.2577   -0.5638    0.0000 O   0  0  0  0  0  0  0  0  0  0  0  0
   -4.0779   -0.5638    0.0000 C   0  0  0  0  0  0  0  0  0  0  0  0
   -4.3398    0.2107    0.0000 C   0  0  0  0  0  0  0  0  0  0  0  0
   -5.1486    0.3929    0.0000 C   0  0  0  0  0  0  0  0  0  0  0  0
   -5.6954   -0.2220    0.0000 C   0  0  0  0  0  0  0  0  0  0  0  0
   -5.4447   -1.0080    0.0000 C   0  0  0  0  0  0  0  0  0  0  0  0
   -4.6359   -1.1788    0.0000 C   0  0  0  0  0  0  0  0  0  0  0  0
  1  2  1  0  0  0  0
  1  6  1  0  0  0  0
  1  7  2  0  0  0  0
  2  3  1  0  0  0  0
  2 18  1  6  0  0  0
  3  4  1  0  0  0  0
  4  5  1  0  0  0  0
  5  8  1  0  0  0  0
  6  8  1  0  0  0  0
  8 15  1  0  0  0  0
  9 15  1  0  0  0  0
  9 14  1  0  0  0  0
  9 11  2  0  0  0  0
 10 14  2  0  0  0  0
 10 13  1  0  0  0  0
 11 12  1  0  0  0  0
 12 13  2  0  0  0  0
 15 17  2  0  0  0  0
 15 16  2  0  0  0  0
 18 19  1  0  0  0  0
 19 20  2  0  0  0  0
 21 19  1  1  0  0  0
 21 26  1  0  0  0  0
 21 22  1  0  0  0  0
 22 23  1  0  0  0  0
 23 24  1  0  0  0  0
 23 25  1  0  0  0  0
 26 27  1  0  0  0  0
 27 29  1  0  0  0  0
 27 28  2  0  0  0  0
 29 31  1  0  0  0  0
 29 30  2  0  0  0  0
 30 33  1  0  0  0  0
 31 32  1  0  0  0  0
 32 37  1  0  0  0  0
 32 33  2  0  0  0  0
 33 34  1  0  0  0  0
 34 35  2  0  0  0  0
 35 36  1  0  0  0  0
 36 37  2  0  0  0  0
M  END
>  <DATABASE_ID>
DB03642

>  <DATABASE_NAME>
drugbank

>  <SMILES>
CC(C)C[C@H](NC(=O)C1=CC2=C(O1)C=CC=C2)C(=O)N[C@H]1CCCN(CC1=O)S(=O)(=O)C1=CC=CC=N1

>  <INCHI_IDENTIFIER>
InChI=1S/C26H30N4O6S/c1-17(2)14-20(29-26(33)23-15-18-8-3-4-10-22(18)36-23)25(32)28-19-9-7-13-30(16-21(19)31)37(34,35)24-11-5-6-12-27-24/h3-6,8,10-12,15,17,19-20H,7,9,13-14,16H2,1-2H3,(H,28,32)(H,29,33)/t19-,20-/m0/s1

>  <INCHI_KEY>
VBPPNJCVXGAZDD-PMACEKPBSA-N

>  <FORMULA>
C26H30N4O6S

>  <MOLECULAR_WEIGHT>
526.605

>  <EXACT_MASS>
526.188605402

>  <JCHEM_ACCEPTOR_COUNT>
6

>  <JCHEM_ATOM_COUNT>
67

>  <JCHEM_AVERAGE_NEUTRAL_MICROSPECIES_CHARGE>
-9.369640994286915e-06

>  <JCHEM_AVERAGE_POLARIZABILITY>
53.56267074419942

>  <JCHEM_BIOAVAILABILITY>
1

>  <JCHEM_DONOR_COUNT>
2

>  <JCHEM_FORMAL_CHARGE>
0

>  <JCHEM_GHOSE_FILTER>
0

>  <JCHEM_IUPAC>
(2S)-2-[(1-benzofuran-2-yl)formamido]-4-methyl-N-[(4S)-3-oxo-1-(pyridine-2-sulfonyl)azepan-4-yl]pentanamide

>  <ALOGPS_LOGP>
2.16

>  <JCHEM_LOGP>
2.3743832873333335

>  <ALOGPS_LOGS>
-4.13

>  <JCHEM_MDDR_LIKE_RULE>
1

>  <JCHEM_NEUTRAL_CHARGE>
0

>  <JCHEM_NUMBER_OF_RINGS>
4

>  <JCHEM_PHYSIOLOGICAL_CHARGE>
0

>  <JCHEM_PKA>
14.678194678835016

>  <JCHEM_PKA_STRONGEST_ACIDIC>
12.028945545028563

>  <JCHEM_PKA_STRONGEST_BASIC>
-1.0716419808722506

>  <JCHEM_POLAR_SURFACE_AREA>
138.68

>  <JCHEM_REFRACTIVITY>
136.25149999999996

>  <JCHEM_ROTATABLE_BOND_COUNT>
7

>  <JCHEM_RULE_OF_FIVE>
0

>  <ALOGPS_SOLUBILITY>
3.94e-02 g/l

>  <JCHEM_TRADITIONAL_IUPAC>
(2R,5S,8S,11S,15S)-8-benzyl-2,7-dimethyl-5-[3-({[(methylcarbamoyl)amino]methanimidoyl}amino)propyl]-3,6,9,13,17-pentaoxo-1,4,7,10,14-pentaazacycloheptadecane-11,15-dicarboxylic acid

>  <JCHEM_VEBER_RULE>
0

>  <DRUGBANK_ID>
DB03642

>  <SECONDARY_ACCESSION_NUMBERS>
EXPT00107

>  <DRUG_GROUPS>
experimental

>  <GENERIC_NAME>
N-[(2S)-4-Methyl-1-oxo-1-{[(4S)-3-oxo-1-(2-pyridinylsulfonyl)-4-azepanyl]amino}-2-pentanyl]-1-benzofuran-2-carboxamide

$$$$

 OpenBabel05042401512D

 22 22  0  0  1  0  0  0  0  0999 V2000
    1.4289    0.8250    0.0000 C   0  0  1  0  0  0  0  0  0  0  0  0
    0.7145    1.2375    0.0000 C   0  0  1  0  0  0  0  0  0  0  0  0
    1.4289   -0.0000    0.0000 C   0  0  2  0  0  0  0  0  0  0  0  0
    0.0000    0.8250    0.0000 C   0  0  1  0  0  0  0  0  0  0  0  0
    0.7145   -0.4125    0.0000 C   0  0  1  0  0  0  0  0  0  0  0  0
    0.0000    0.0000    0.0000 C   0  0  1  0  0  0  0  0  0  0  0  0
    2.1434    1.2375    0.0000 O   0  0  0  0  0  0  0  0  0  0  0  0
    0.7145    2.0625    0.0000 O   0  0  0  0  0  0  0  0  0  0  0  0
    2.1434   -0.4125    0.0000 O   0  0  0  0  0  0  0  0  0  0  0  0
   -0.7145    1.2375    0.0000 O   0  0  0  0  0  0  0  0  0  0  0  0
    0.7145   -1.2375    0.0000 O   0  0  0  0  0  0  0  0  0  0  0  0
   -0.7145   -2.0625    0.0000 O   0  5  0  0  0  0  0  0  0  0  0  0
   -1.5395   -1.2375    0.0000 O   0  5  0  0  0  0  0  0  0  0  0  0
    0.1105   -1.2375    0.0000 O   0  0  0  0  0  0  0  0  0  0  0  0
   -0.7145   -0.4125    0.0000 O   0  0  0  0  0  0  0  0  0  0  0  0
   -0.7145   -1.2375    0.0000 P   0  0  0  0  0  0  0  0  0  0  0  0
    1.1468    1.6002    0.0000 H   0  0  0  0  0  0  0  0  0  0  0  0
    1.2448    1.8695    0.0000 H   0  0  0  0  0  0  0  0  0  0  0  0
    2.1434    0.4125    0.0000 H   0  0  0  0  0  0  0  0  0  0  0  0
    0.0000    1.6500    0.0000 H   0  0  0  0  0  0  0  0  0  0  0  0
    1.4289   -0.8250    0.0000 H   0  0  0  0  0  0  0  0  0  0  0  0
   -0.7145    0.4125    0.0000 H   0  0  0  0  0  0  0  0  0  0  0  0
  1  7  1  0  0  0  0
  1 17  1  1  0  0  0
  2  1  1  0  0  0  0
  2  8  1  0  0  0  0
  2 18  1  6  0  0  0
  3  1  1  0  0  0  0
  3  9  1  0  0  0  0
  3 19  1  6  0  0  0
  4  2  1  0  0  0  0
  4 10  1  0  0  0  0
  4 20  1  6  0  0  0
  5  3  1  0  0  0  0
  5 11  1  0  0  0  0
  5 21  1  1  0  0  0
  6  4  1  0  0  0  0
  6  5  1  0  0  0  0
  6 15  1  0  0  0  0
  6 22  1  6  0  0  0
 16 12  1  0  0  0  0
 16 13  1  0  0  0  0
 16 14  2  0  0  0  0
 16 15  1  0  0  0  0
M  CHG  2  12  -1  13  -1
M  END
>  <DATABASE_ID>
DB03542

>  <DATABASE_NAME>
drugbank

>  <SMILES>
[H][C@]1(O)[C@]([H])(O)[C@]([H])(O)[C@]([H])(OP([O-])([O-])=O)[C@@]([H])(O)[C@]1([H])O

>  <INCHI_IDENTIFIER>
InChI=1S/C6H13O9P/c7-1-2(8)4(10)6(5(11)3(1)9)15-16(12,13)14/h1-11H,(H2,12,13,14)/p-2/t1-,2-,3+,4-,5-,6-/m0/s1

>  <INCHI_KEY>
INAPMGSXUVUWAF-PTQMNWPWSA-L

>  <FORMULA>
C6H11O9P

>  <MOLECULAR_WEIGHT>
258.1199

>  <EXACT_MASS>
258.014068462

>  <JCHEM_ACCEPTOR_COUNT>
8

>  <JCHEM_ATOM_COUNT>
27

>  <JCHEM_AVERAGE_NEUTRAL_MICROSPECIES_CHARGE>
-1.927496516224972

>  <JCHEM_AVERAGE_POLARIZABILITY>
20.115505045424072

>  <JCHEM_BIOAVAILABILITY>
1

>  <JCHEM_DONOR_COUNT>
5

>  <JCHEM_FORMAL_CHARGE>
-2

>  <JCHEM_GHOSE_FILTER>
0

>  <JCHEM_IUPAC>
(1R,2S,3R,4R,5S,6S)-2,3,4,5,6-pentahydroxycyclohexyl phosphate

>  <ALOGPS_LOGP>
-1.58

>  <JCHEM_LOGP>
-3.9055756833333333

>  <ALOGPS_LOGS>
-0.53

>  <JCHEM_MDDR_LIKE_RULE>
0

>  <JCHEM_NEUTRAL_CHARGE>
-2

>  <JCHEM_NUMBER_OF_RINGS>
1

>  <JCHEM_PHYSIOLOGICAL_CHARGE>
-2

>  <JCHEM_PKA>
6.194111788919007

>  <JCHEM_PKA_STRONGEST_ACIDIC>
1.1625722061585555

>  <JCHEM_PKA_STRONGEST_BASIC>
-3.6458130196938074

>  <JCHEM_POLAR_SURFACE_AREA>
173.57

>  <JCHEM_REFRACTIVITY>
44.4045

>  <JCHEM_ROTATABLE_BOND_COUNT>
2

>  <JCHEM_RULE_OF_FIVE>
1

>  <ALOGPS_SOLUBILITY>
8.59e+01 g/l

>  <JCHEM_TRADITIONAL_IUPAC>
biotin

>  <JCHEM_VEBER_RULE>
0

>  <DRUGBANK_ID>
DB03542

>  <SECONDARY_ACCESSION_NUMBERS>
EXPT02036

>  <DRUG_GROUPS>
experimental

>  <GENERIC_NAME>
L-Myo-Inositol-1-Phosphate

$$$$

 OpenBabel05042401512D

 43 46  0  0  1  0  0  0  0  0999 V2000
    3.7474    1.1820    0.0000 S   0  0  0  0  0  0  0  0  0  0  0  0
   -0.4923   -3.8403    0.0000 O   0  0  0  0  0  0  0  0  0  0  0  0
    0.9366   -3.8403    0.0000 O   0  0  0  0  0  0  0  0  0  0  0  0
   -0.4923   -6.3154    0.0000 O   0  0  0  0  0  0  0  0  0  0  0  0
   -1.9212   -5.4904    0.0000 O   0  0  0  0  0  0  0  0  0  0  0  0
    0.9366   -5.4904    0.0000 O   0  0  0  0  0  0  0  0  0  0  0  0
   -1.9212   -3.0153    0.0000 O   0  0  0  0  0  0  0  0  0  0  0  0
   -1.2068   -1.7778    0.0000 O   0  0  0  0  0  0  0  0  0  0  0  0
    1.6510   -0.1278    0.0000 O   0  0  0  0  0  0  0  0  0  0  0  0
   -1.9212    1.9346    0.0000 N   0  0  0  0  0  0  0  0  0  0  0  0
   -1.9212    3.5846    0.0000 N   0  0  0  0  0  0  0  0  0  0  0  0
   -0.4923   -0.5403    0.0000 N   0  0  0  0  0  0  0  0  0  0  0  0
   -3.3502    6.0596    0.0000 N   0  0  0  0  0  0  0  0  0  0  0  0
    2.3655   -1.3653    0.0000 N   0  0  0  0  0  0  0  0  0  0  0  0
   -0.4923   -5.4904    0.0000 C   0  0  1  0  0  0  0  0  0  0  0  0
   -1.2068   -5.0779    0.0000 C   0  0  2  0  0  0  0  0  0  0  0  0
   -1.2068    2.3471    0.0000 C   0  0  0  0  0  0  0  0  0  0  0  0
   -2.6357    2.3471    0.0000 C   0  0  0  0  0  0  0  0  0  0  0  0
   -1.2068    3.1721    0.0000 C   0  0  0  0  0  0  0  0  0  0  0  0
   -2.6357    3.1721    0.0000 C   0  0  0  0  0  0  0  0  0  0  0  0
    0.2221   -5.0779    0.0000 C   0  0  2  0  0  0  0  0  0  0  0  0
   -1.2068   -4.2528    0.0000 C   0  0  1  0  0  0  0  0  0  0  0  0
    0.2221   -4.2528    0.0000 C   0  0  2  0  0  0  0  0  0  0  0  0
   -1.9212    1.1096    0.0000 C   0  0  0  0  0  0  0  0  0  0  0  0
   -1.9212    4.4096    0.0000 C   0  0  0  0  0  0  0  0  0  0  0  0
   -1.2068    0.6971    0.0000 C   0  0  0  0  0  0  0  0  0  0  0  0
   -1.9212   -3.8403    0.0000 C   0  0  0  0  0  0  0  0  0  0  0  0
   -2.6357    4.8221    0.0000 C   0  0  0  0  0  0  0  0  0  0  0  0
   -1.2068   -0.1278    0.0000 C   0  0  0  0  0  0  0  0  0  0  0  0
   -2.6357    5.6471    0.0000 C   0  0  0  0  0  0  0  0  0  0  0  0
    0.9366   -3.0153    0.0000 C   0  0  0  0  0  0  0  0  0  0  0  0
    0.2221   -2.6028    0.0000 C   0  0  0  0  0  0  0  0  0  0  0  0
    0.2221   -1.7778    0.0000 C   0  0  0  0  0  0  0  0  0  0  0  0
   -0.4923   -1.3653    0.0000 C   0  0  0  0  0  0  0  0  0  0  0  0
    1.6510   -2.6028    0.0000 C   0  0  0  0  0  0  0  0  0  0  0  0
    1.6510   -1.7778    0.0000 C   0  0  0  0  0  0  0  0  0  0  0  0
    0.9366   -1.3653    0.0000 C   0  0  0  0  0  0  0  0  0  0  0  0
    2.3655   -0.5403    0.0000 C   0  0  0  0  0  0  0  0  0  0  0  0
    3.0800   -0.1278    0.0000 C   0  0  0  0  0  0  0  0  0  0  0  0
    3.0800    0.6971    0.0000 C   0  0  0  0  0  0  0  0  0  0  0  0
    2.4126    1.1820    0.0000 C   0  0  0  0  0  0  0  0  0  0  0  0
    2.6675    1.9666    0.0000 C   0  0  0  0  0  0  0  0  0  0  0  0
    3.4925    1.9666    0.0000 C   0  0  0  0  0  0  0  0  0  0  0  0
  1 40  1  0  0  0  0
  1 43  1  0  0  0  0
  2 22  1  0  0  0  0
  2 23  1  0  0  0  0
  3 31  1  0  0  0  0
  7 27  1  0  0  0  0
  8 34  2  0  0  0  0
  9 38  2  0  0  0  0
 10 17  1  0  0  0  0
 10 18  1  0  0  0  0
 10 24  1  0  0  0  0
 11 19  1  0  0  0  0
 11 20  1  0  0  0  0
 11 25  1  0  0  0  0
 12 29  1  0  0  0  0
 12 34  1  0  0  0  0
 13 30  1  0  0  0  0
 14 36  1  0  0  0  0
 14 38  1  0  0  0  0
 15  4  1  1  0  0  0
 15 16  1  0  0  0  0
 15 21  1  0  0  0  0
 16  5  1  1  0  0  0
 16 22  1  0  0  0  0
 17 19  1  0  0  0  0
 18 20  1  0  0  0  0
 21  6  1  6  0  0  0
 21 23  1  0  0  0  0
 22 27  1  1  0  0  0
 23  3  1  6  0  0  0
 24 26  1  0  0  0  0
 25 28  1  0  0  0  0
 26 29  1  0  0  0  0
 28 30  1  0  0  0  0
 31 32  2  0  0  0  0
 31 35  1  0  0  0  0
 32 33  1  0  0  0  0
 33 34  1  0  0  0  0
 33 37  2  0  0  0  0
 35 36  2  0  0  0  0
 36 37  1  0  0  0  0
 38 39  1  0  0  0  0
 39 40  1  0  0  0  0
 40 41  2  0  0  0  0
 41 42  1  0  0  0  0
 42 43  2  0  0  0  0
M  END
>  <DATABASE_ID>
DB03524

>  <DATABASE_NAME>
drugbank

>  <SMILES>
NCCCN1CCN(CCCNC(=O)C2=CC(NC(=O)CC3=CC=CS3)=CC(O[C@H]3O[C@H](CO)[C@H](O)[C@H](O)[C@H]3O)=C2)CC1

>  <INCHI_IDENTIFIER>
InChI=1S/C29H43N5O8S/c30-5-2-7-33-9-11-34(12-10-33)8-3-6-31-28(40)19-14-20(32-24(36)17-22-4-1-13-43-22)16-21(15-19)41-29-27(39)26(38)25(37)23(18-35)42-29/h1,4,13-16,23,25-27,29,35,37-39H,2-3,5-12,17-18,30H2,(H,31,40)(H,32,36)/t23-,25+,26+,27-,29+/m1/s1

>  <INCHI_KEY>
ZIXIINLBMSXOQV-ADWZMSLQSA-N

>  <FORMULA>
C29H43N5O8S

>  <MOLECULAR_WEIGHT>
621.745

>  <EXACT_MASS>
621.283234067

>  <JCHEM_ACCEPTOR_COUNT>
11

>  <JCHEM_ATOM_COUNT>
86

>  <JCHEM_AVERAGE_NEUTRAL_MICROSPECIES_CHARGE>
3.1052430526158044

>  <JCHEM_AVERAGE_POLARIZABILITY>
66.53784455894356

>  <JCHEM_BIOAVAILABILITY>
0

>  <JCHEM_DONOR_COUNT>
7

>  <JCHEM_FORMAL_CHARGE>
0

>  <JCHEM_GHOSE_FILTER>
0

>  <JCHEM_IUPAC>
N-{3-[4-(3-aminopropyl)piperazin-1-yl]propyl}-3-[2-(thiophen-2-yl)acetamido]-5-{[(2R,3R,4S,5R,6R)-3,4,5-trihydroxy-6-(hydroxymethyl)oxan-2-yl]oxy}benzamide

>  <ALOGPS_LOGP>
0.89

>  <JCHEM_LOGP>
-1.350439908333333

>  <ALOGPS_LOGS>
-3.65

>  <JCHEM_MDDR_LIKE_RULE>
1

>  <JCHEM_NEUTRAL_CHARGE>
3

>  <JCHEM_NUMBER_OF_RINGS>
4

>  <JCHEM_PHYSIOLOGICAL_CHARGE>
2

>  <JCHEM_PKA>
12.948306230301228

>  <JCHEM_PKA_STRONGEST_ACIDIC>
12.162784205169357

>  <JCHEM_PKA_STRONGEST_BASIC>
9.87563831414075

>  <JCHEM_POLAR_SURFACE_AREA>
190.08000000000004

>  <JCHEM_REFRACTIVITY>
162.38299999999995

>  <JCHEM_ROTATABLE_BOND_COUNT>
14

>  <JCHEM_RULE_OF_FIVE>
0

>  <ALOGPS_SOLUBILITY>
1.39e-01 g/l

>  <JCHEM_TRADITIONAL_IUPAC>
N-{3-[4-(3-aminopropyl)piperazin-1-yl]propyl}-3-[2-(thiophen-2-yl)acetamido]-5-{[(2R,3R,4S,5R,6R)-3,4,5-trihydroxy-6-(hydroxymethyl)oxan-2-yl]oxy}benzamide

>  <JCHEM_VEBER_RULE>
0

>  <DRUGBANK_ID>
DB03524

>  <SECONDARY_ACCESSION_NUMBERS>
EXPT01953

>  <DRUG_GROUPS>
experimental

>  <GENERIC_NAME>
N-[3-[4-(3-aminopropyl)piperazin-1-yl]propyl]-3-[(2-thiophen-2-ylacetyl)amino]-5-[(2R,3R,4S,5R,6R)-3,4,5-trihydroxy-6-(hydroxymethyl)oxan-2-yl]oxybenzamide

$$$$

 OpenBabel05042401512D

 23 24  0  0  1  0  0  0  0  0999 V2000
   -5.9710    2.4402    0.0000 O   0  0  0  0  0  0  0  0  0  0  0  0
   -6.6854    2.0277    0.0000 C   0  0  1  0  0  0  0  0  0  0  0  0
   -6.6854    1.2027    0.0000 C   0  0  2  0  0  0  0  0  0  0  0  0
   -5.9710    0.7902    0.0000 C   0  0  1  0  0  0  0  0  0  0  0  0
   -5.2565    1.2027    0.0000 C   0  0  2  0  0  0  0  0  0  0  0  0
   -5.2565    2.0277    0.0000 C   0  0  1  0  0  0  0  0  0  0  0  0
   -4.5420    2.4402    0.0000 O   0  0  0  0  0  0  0  0  0  0  0  0
   -4.5420    0.7902    0.0000 O   0  0  0  0  0  0  0  0  0  0  0  0
   -5.9710   -0.0348    0.0000 O   0  0  0  0  0  0  0  0  0  0  0  0
   -7.3999    0.7902    0.0000 O   0  0  0  0  0  0  0  0  0  0  0  0
   -7.3999    2.4402    0.0000 C   0  0  0  0  0  0  0  0  0  0  0  0
   -8.1144    2.0277    0.0000 O   0  0  0  0  0  0  0  0  0  0  0  0
   -3.1131    4.0902    0.0000 O   0  0  0  0  0  0  0  0  0  0  0  0
   -3.8275    3.6777    0.0000 C   0  0  1  0  0  0  0  0  0  0  0  0
   -3.8275    2.8527    0.0000 C   0  0  2  0  0  0  0  0  0  0  0  0
   -3.1131    2.4402    0.0000 C   0  0  1  0  0  0  0  0  0  0  0  0
   -2.3986    2.8527    0.0000 C   0  0  2  0  0  0  0  0  0  0  0  0
   -2.3986    3.6777    0.0000 C   0  0  3  0  0  0  0  0  0  0  0  0
   -1.6841    4.0902    0.0000 O   0  0  0  0  0  0  0  0  0  0  0  0
   -1.6841    2.4402    0.0000 O   0  0  0  0  0  0  0  0  0  0  0  0
   -3.1131    1.6152    0.0000 O   0  0  0  0  0  0  0  0  0  0  0  0
   -4.5420    4.0902    0.0000 C   0  0  0  0  0  0  0  0  0  0  0  0
   -5.2565    3.6777    0.0000 O   0  0  0  0  0  0  0  0  0  0  0  0
  1  2  1  0  0  0  0
  1  6  1  0  0  0  0
  2  3  1  0  0  0  0
  2 11  1  1  0  0  0
  3  4  1  0  0  0  0
  3 10  1  6  0  0  0
  4  5  1  0  0  0  0
  4  9  1  1  0  0  0
  5  6  1  0  0  0  0
  5  8  1  6  0  0  0
  6  7  1  6  0  0  0
 11 12  1  0  0  0  0
 13 14  1  0  0  0  0
 13 18  1  0  0  0  0
 14 15  1  0  0  0  0
 14 22  1  1  0  0  0
 15 16  1  0  0  0  0
 15  7  1  6  0  0  0
 16 17  1  0  0  0  0
 16 21  1  1  0  0  0
 17 18  1  0  0  0  0
 17 20  1  6  0  0  0
 18 19  1  0  0  0  0
 22 23  1  0  0  0  0
M  END
>  <DATABASE_ID>
DB03323

>  <DATABASE_NAME>
drugbank

>  <SMILES>
OC[C@H]1O[C@H](O[C@H]2[C@H](O)[C@@H](O)C(O)O[C@@H]2CO)[C@H](O)[C@@H](O)[C@@H]1O

>  <INCHI_IDENTIFIER>
InChI=1S/C12H22O11/c13-1-3-5(15)6(16)9(19)12(22-3)23-10-4(2-14)21-11(20)8(18)7(10)17/h3-20H,1-2H2/t3-,4-,5-,6+,7-,8-,9-,10-,11?,12-/m1/s1

>  <INCHI_KEY>
GUBGYTABKSRVRQ-PICCSMPSSA-N

>  <FORMULA>
C12H22O11

>  <MOLECULAR_WEIGHT>
342.2965

>  <EXACT_MASS>
342.116211546

>  <JCHEM_ACCEPTOR_COUNT>
11

>  <JCHEM_ATOM_COUNT>
45

>  <JCHEM_AVERAGE_NEUTRAL_MICROSPECIES_CHARGE>
-6.614814377167016e-05

>  <JCHEM_AVERAGE_POLARIZABILITY>
31.57121661904174

>  <JCHEM_BIOAVAILABILITY>
0

>  <JCHEM_DONOR_COUNT>
8

>  <JCHEM_FORMAL_CHARGE>
0

>  <JCHEM_GHOSE_FILTER>
0

>  <JCHEM_IUPAC>
(2R,3S,4S,5R,6R)-2-(hydroxymethyl)-6-{[(2R,3S,4R,5R)-4,5,6-trihydroxy-2-(hydroxymethyl)oxan-3-yl]oxy}oxane-3,4,5-triol

>  <ALOGPS_LOGP>
-3.01

>  <JCHEM_LOGP>
-4.703374863666666

>  <ALOGPS_LOGS>
0.23

>  <JCHEM_MDDR_LIKE_RULE>
0

>  <JCHEM_NEUTRAL_CHARGE>
0

>  <JCHEM_NUMBER_OF_RINGS>
2

>  <JCHEM_PHYSIOLOGICAL_CHARGE>
0

>  <JCHEM_PKA>
12.173689317234611

>  <JCHEM_PKA_STRONGEST_ACIDIC>
11.254374125721942

>  <JCHEM_PKA_STRONGEST_BASIC>
-2.9810835652988272

>  <JCHEM_POLAR_SURFACE_AREA>
189.52999999999997

>  <JCHEM_REFRACTIVITY>
68.3367

>  <JCHEM_ROTATABLE_BOND_COUNT>
4

>  <JCHEM_RULE_OF_FIVE>
0

>  <ALOGPS_SOLUBILITY>
5.86e+02 g/l

>  <JCHEM_TRADITIONAL_IUPAC>
tetrahydrofolic acid

>  <JCHEM_VEBER_RULE>
0

>  <DRUGBANK_ID>
DB03323

>  <SECONDARY_ACCESSION_NUMBERS>
EXPT02111

>  <DRUG_GROUPS>
experimental; investigational

>  <GENERIC_NAME>
Maltose

>  <SYNONYMS>
D-(+)-maltose; Maltose anhydrous

$$$$

 OpenBabel05042401512D

 17 17  0  0  1  0  0  0  0  0999 V2000
    2.1434    1.2375    0.0000 C   0  0  0  0  0  0  0  0  0  0  0  0
    1.4289    0.8250    0.0000 C   0  0  2  0  0  0  0  0  0  0  0  0
    0.7145    1.2375    0.0000 C   0  0  2  0  0  0  0  0  0  0  0  0
    0.0000    0.8250    0.0000 C   0  0  1  0  0  0  0  0  0  0  0  0
    0.0000    0.0000    0.0000 C   0  0  2  0  0  0  0  0  0  0  0  0
    0.7145   -0.4125    0.0000 C   0  0  1  0  0  0  0  0  0  0  0  0
    0.7145    2.0625    0.0000 N   0  0  0  0  0  0  0  0  0  0  0  0
    2.8579    0.8250    0.0000 O   0  0  0  0  0  0  0  0  0  0  0  0
   -0.7145    1.2375    0.0000 O   0  0  0  0  0  0  0  0  0  0  0  0
   -0.7145   -0.4125    0.0000 O   0  0  0  0  0  0  0  0  0  0  0  0
    0.7145   -1.2375    0.0000 O   0  0  0  0  0  0  0  0  0  0  0  0
    1.4289   -0.0000    0.0000 O   0  0  0  0  0  0  0  0  0  0  0  0
    1.1468    1.6002    0.0000 H   0  0  0  0  0  0  0  0  0  0  0  0
    1.2448    1.8695    0.0000 H   0  0  0  0  0  0  0  0  0  0  0  0
    0.0000    1.6500    0.0000 H   0  0  0  0  0  0  0  0  0  0  0  0
   -0.7145    0.4125    0.0000 H   0  0  0  0  0  0  0  0  0  0  0  0
   -0.0000   -0.8250    0.0000 H   0  0  0  0  0  0  0  0  0  0  0  0
  2  1  1  0  0  0  0
  2 13  1  6  0  0  0
  3  2  1  0  0  0  0
  3  7  1  0  0  0  0
  3 14  1  1  0  0  0
  4  3  1  0  0  0  0
  4  9  1  0  0  0  0
  4 15  1  6  0  0  0
  5  4  1  0  0  0  0
  5 10  1  0  0  0  0
  5 16  1  1  0  0  0
  6  5  1  0  0  0  0
  6 11  1  0  0  0  0
  6 17  1  1  0  0  0
  8  1  1  0  0  0  0
 12  2  1  0  0  0  0
 12  6  1  0  0  0  0
M  END
>  <DATABASE_ID>
DB03291

>  <DATABASE_NAME>
drugbank

>  <SMILES>
[H][C@]1(N)[C@]([H])(O)[C@@]([H])(O)[C@@]([H])(O)O[C@]1([H])CO

>  <INCHI_IDENTIFIER>
InChI=1S/C6H13NO5/c7-3-2(1-8)12-6(11)5(10)4(3)9/h2-6,8-11H,1,7H2/t2-,3-,4+,5-,6+/m1/s1

>  <INCHI_KEY>
BXZVZSSSRTUQJP-DVKNGEFBSA-N

>  <FORMULA>
C6H13NO5

>  <MOLECULAR_WEIGHT>
179.1711

>  <EXACT_MASS>
179.079372531

>  <JCHEM_ACCEPTOR_COUNT>
6

>  <JCHEM_ATOM_COUNT>
25

>  <JCHEM_AVERAGE_NEUTRAL_MICROSPECIES_CHARGE>
0.9383063412651582

>  <JCHEM_AVERAGE_POLARIZABILITY>
16.706445971311016

>  <JCHEM_BIOAVAILABILITY>
1

>  <JCHEM_DONOR_COUNT>
5

>  <JCHEM_FORMAL_CHARGE>
0

>  <JCHEM_GHOSE_FILTER>
0

>  <JCHEM_IUPAC>
(2S,3R,4S,5S,6S)-5-amino-6-(hydroxymethyl)oxane-2,3,4-triol

>  <ALOGPS_LOGP>
-2.72

>  <JCHEM_LOGP>
-3.0394210146666665

>  <ALOGPS_LOGS>
0.48

>  <JCHEM_MDDR_LIKE_RULE>
0

>  <JCHEM_NEUTRAL_CHARGE>
1

>  <JCHEM_NUMBER_OF_RINGS>
1

>  <JCHEM_PHYSIOLOGICAL_CHARGE>
1

>  <JCHEM_PKA>
13.09096140987147

>  <JCHEM_PKA_STRONGEST_ACIDIC>
11.316988499160548

>  <JCHEM_PKA_STRONGEST_BASIC>
8.18247300515306

>  <JCHEM_POLAR_SURFACE_AREA>
116.17000000000002

>  <JCHEM_REFRACTIVITY>
37.5809

>  <JCHEM_ROTATABLE_BOND_COUNT>
1

>  <JCHEM_RULE_OF_FIVE>
1

>  <ALOGPS_SOLUBILITY>
5.37e+02 g/l

>  <JCHEM_TRADITIONAL_IUPAC>
tetrahydrofolic acid

>  <JCHEM_VEBER_RULE>
0

>  <DRUGBANK_ID>
DB03291

>  <SECONDARY_ACCESSION_NUMBERS>
EXPT01568

>  <DRUG_GROUPS>
experimental

>  <GENERIC_NAME>
4-Deoxy-4-Amino-Beta-D-Glucose

$$$$
TH1
 OpenBabel05042401512D

 26 28  0  0  1  0  0  0  0  0999 V2000
   -1.3879   -0.8717    0.0000 C   0  0  1  0  0  0  0  0  0  0  0  0
   -1.8004   -1.5862    0.0000 C   0  0  2  0  0  0  0  0  0  0  0  0
   -1.3879   -2.3006    0.0000 O   0  0  0  0  0  0  0  0  0  0  0  0
   -2.6254   -1.5862    0.0000 C   0  0  1  0  0  0  0  0  0  0  0  0
   -3.0379   -2.3006    0.0000 O   0  0  0  0  0  0  0  0  0  0  0  0
   -3.0379   -0.8717    0.0000 C   0  0  2  0  0  0  0  0  0  0  0  0
   -3.8629   -0.8717    0.0000 O   0  0  0  0  0  0  0  0  0  0  0  0
   -2.6254   -0.1572    0.0000 C   0  0  2  0  0  0  0  0  0  0  0  0
   -1.8004   -0.1572    0.0000 O   0  0  0  0  0  0  0  0  0  0  0  0
   -3.0379    0.5572    0.0000 C   0  0  0  0  0  0  0  0  0  0  0  0
   -2.6254    1.2717    0.0000 O   0  0  0  0  0  0  0  0  0  0  0  0
   -0.5629   -0.8717    0.0000 C   0  0  0  0  0  0  0  0  0  0  0  0
   -0.0780   -0.2043    0.0000 N   0  0  0  0  0  0  0  0  0  0  0  0
    0.7066   -0.4592    0.0000 C   0  0  0  0  0  0  0  0  0  0  0  0
    1.4211   -0.0467    0.0000 C   0  0  0  0  0  0  0  0  0  0  0  0
    2.1356   -0.4592    0.0000 C   0  0  0  0  0  0  0  0  0  0  0  0
    2.1356   -1.2842    0.0000 C   0  0  0  0  0  0  0  0  0  0  0  0
    1.4211   -1.6967    0.0000 C   0  0  0  0  0  0  0  0  0  0  0  0
    0.7066   -1.2842    0.0000 C   0  0  0  0  0  0  0  0  0  0  0  0
   -0.0780   -1.5391    0.0000 S   0  0  0  0  0  0  0  0  0  0  0  0
    2.8501   -0.0467    0.0000 C   0  0  0  0  0  0  0  0  0  0  0  0
   -0.9406   -1.2470    0.0000 H   0  0  0  0  0  0  0  0  0  0  0  0
   -1.2517   -1.7859    0.0000 H   0  0  0  0  0  0  0  0  0  0  0  0
   -2.3334   -2.0919    0.0000 H   0  0  0  0  0  0  0  0  0  0  0  0
   -3.3299   -1.3774    0.0000 H   0  0  0  0  0  0  0  0  0  0  0  0
   -3.2093   -0.1572    0.0000 H   0  0  0  0  0  0  0  0  0  0  0  0
  1  2  1  0  0  0  0
  1  9  1  0  0  0  0
  1 12  1  0  0  0  0
  1 22  1  6  0  0  0
  2  3  1  0  0  0  0
  2  4  1  0  0  0  0
  2 23  1  1  0  0  0
  4  5  1  0  0  0  0
  4  6  1  0  0  0  0
  4 24  1  6  0  0  0
  6  7  1  0  0  0  0
  6  8  1  0  0  0  0
  6 25  1  1  0  0  0
  8  9  1  0  0  0  0
  8 10  1  0  0  0  0
  8 26  1  6  0  0  0
 10 11  1  0  0  0  0
 12 13  2  0  0  0  0
 12 20  1  0  0  0  0
 13 14  1  0  0  0  0
 14 15  2  0  0  0  0
 14 19  1  0  0  0  0
 15 16  1  0  0  0  0
 16 17  2  0  0  0  0
 16 21  1  0  0  0  0
 17 18  1  0  0  0  0
 18 19  2  0  0  0  0
 19 20  1  0  0  0  0
M  END
>  <DATABASE_ID>
DB03250

>  <DATABASE_NAME>
drugbank

>  <SMILES>
[H][C@]1(CO)O[C@@]([H])(C2=NC3=CC(C)=CC=C3S2)[C@]([H])(O)[C@@]([H])(O)[C@]1([H])O

>  <INCHI_IDENTIFIER>
InChI=1S/C14H17NO5S/c1-6-2-3-9-7(4-6)15-14(21-9)13-12(19)11(18)10(17)8(5-16)20-13/h2-4,8,10-13,16-19H,5H2,1H3/t8-,10-,11+,12-,13-/m1/s1

>  <INCHI_KEY>
WGJFWQVWYRZPEP-KABOQKQYSA-N

>  <FORMULA>
C14H17NO5S

>  <MOLECULAR_WEIGHT>
311.353

>  <EXACT_MASS>
311.082743349

>  <JCHEM_ACCEPTOR_COUNT>
6

>  <JCHEM_ATOM_COUNT>
38

>  <JCHEM_AVERAGE_NEUTRAL_MICROSPECIES_CHARGE>
-2.665058979701005e-08

>  <JCHEM_AVERAGE_POLARIZABILITY>
30.83384608499683

>  <JCHEM_BIOAVAILABILITY>
1

>  <JCHEM_DONOR_COUNT>
4

>  <JCHEM_FORMAL_CHARGE>
0

>  <JCHEM_GHOSE_FILTER>
1

>  <JCHEM_IUPAC>
(2R,3S,4S,5R,6R)-2-(hydroxymethyl)-6-(5-methyl-1,3-benzothiazol-2-yl)oxane-3,4,5-triol

>  <ALOGPS_LOGP>
-0.08

>  <JCHEM_LOGP>
0.09492791933333347

>  <ALOGPS_LOGS>
-2.35

>  <JCHEM_MDDR_LIKE_RULE>
0

>  <JCHEM_NEUTRAL_CHARGE>
0

>  <JCHEM_NUMBER_OF_RINGS>
3

>  <JCHEM_PHYSIOLOGICAL_CHARGE>
0

>  <JCHEM_PKA>
13.339761311897039

>  <JCHEM_PKA_STRONGEST_ACIDIC>
12.458929540611996

>  <JCHEM_PKA_STRONGEST_BASIC>
1.6372557755666513

>  <JCHEM_POLAR_SURFACE_AREA>
103.04

>  <JCHEM_REFRACTIVITY>
74.6903

>  <JCHEM_ROTATABLE_BOND_COUNT>
2

>  <JCHEM_RULE_OF_FIVE>
1

>  <ALOGPS_SOLUBILITY>
1.39e+00 g/l

>  <JCHEM_TRADITIONAL_IUPAC>
tetrahydrofolic acid

>  <JCHEM_VEBER_RULE>
0

>  <DRUGBANK_ID>
DB03250

>  <SECONDARY_ACCESSION_NUMBERS>
EXPT03046

>  <DRUG_GROUPS>
experimental

>  <GENERIC_NAME>
2-(Beta-D-Glucopyranosyl)-5-Methyl-1,3,4-Benzothiazole

$$$$

 OpenBabel05042401512D

 40 42  0  0  1  0  0  0  0  0999 V2000
   -0.1357   -3.9683    0.0000 O   0  0  0  0  0  0  0  0  0  0  0  0
    1.2932   -3.9683    0.0000 O   0  0  0  0  0  0  0  0  0  0  0  0
   -1.5647   -5.6183    0.0000 O   0  0  0  0  0  0  0  0  0  0  0  0
   -0.1357   -6.4433    0.0000 O   0  0  0  0  0  0  0  0  0  0  0  0
    1.2932   -5.6183    0.0000 O   0  0  0  0  0  0  0  0  0  0  0  0
   -1.5647   -3.1433    0.0000 O   0  0  0  0  0  0  0  0  0  0  0  0
   -0.8502   -1.9057    0.0000 O   0  0  0  0  0  0  0  0  0  0  0  0
    2.7221   -0.6682    0.0000 O   0  5  0  0  0  0  0  0  0  0  0  0
    3.4366   -1.9057    0.0000 O   0  0  0  0  0  0  0  0  0  0  0  0
   -1.5647    1.8067    0.0000 N   0  0  0  0  0  0  0  0  0  0  0  0
   -1.5647    3.4568    0.0000 N   0  0  0  0  0  0  0  0  0  0  0  0
   -0.1357   -0.6682    0.0000 N   0  0  0  0  0  0  0  0  0  0  0  0
   -2.9937    5.9318    0.0000 N   0  0  0  0  0  0  0  0  0  0  0  0
    2.7221   -1.4932    0.0000 N   0  3  0  0  0  0  0  0  0  0  0  0
   -0.8502   -5.2058    0.0000 C   0  0  2  0  0  0  0  0  0  0  0  0
   -0.1357   -5.6183    0.0000 C   0  0  1  0  0  0  0  0  0  0  0  0
   -0.8502   -4.3808    0.0000 C   0  0  1  0  0  0  0  0  0  0  0  0
    0.5787   -5.2058    0.0000 C   0  0  2  0  0  0  0  0  0  0  0  0
   -2.2791    2.2192    0.0000 C   0  0  0  0  0  0  0  0  0  0  0  0
   -0.8502    2.2192    0.0000 C   0  0  0  0  0  0  0  0  0  0  0  0
   -2.2791    3.0443    0.0000 C   0  0  0  0  0  0  0  0  0  0  0  0
   -0.8502    3.0443    0.0000 C   0  0  0  0  0  0  0  0  0  0  0  0
    0.5787   -4.3808    0.0000 C   0  0  2  0  0  0  0  0  0  0  0  0
   -1.5647    0.9817    0.0000 C   0  0  0  0  0  0  0  0  0  0  0  0
   -1.5647    4.2818    0.0000 C   0  0  0  0  0  0  0  0  0  0  0  0
   -1.5647   -3.9683    0.0000 C   0  0  0  0  0  0  0  0  0  0  0  0
   -0.8502    0.5692    0.0000 C   0  0  0  0  0  0  0  0  0  0  0  0
   -2.2791    4.6943    0.0000 C   0  0  0  0  0  0  0  0  0  0  0  0
   -0.8502   -0.2557    0.0000 C   0  0  0  0  0  0  0  0  0  0  0  0
   -2.2791    5.5193    0.0000 C   0  0  0  0  0  0  0  0  0  0  0  0
    1.2932   -3.1433    0.0000 C   0  0  0  0  0  0  0  0  0  0  0  0
    0.5787   -2.7308    0.0000 C   0  0  0  0  0  0  0  0  0  0  0  0
    0.5787   -1.9057    0.0000 C   0  0  0  0  0  0  0  0  0  0  0  0
   -0.1357   -1.4932    0.0000 C   0  0  0  0  0  0  0  0  0  0  0  0
    2.0076   -2.7308    0.0000 C   0  0  0  0  0  0  0  0  0  0  0  0
    2.0076   -1.9057    0.0000 C   0  0  0  0  0  0  0  0  0  0  0  0
    1.2932   -1.4932    0.0000 C   0  0  0  0  0  0  0  0  0  0  0  0
    0.3072   -0.4125    0.0000 H   0  0  0  0  0  0  0  0  0  0  0  0
   -3.4366    5.6761    0.0000 H   0  0  0  0  0  0  0  0  0  0  0  0
   -2.9937    6.4433    0.0000 H   0  0  0  0  0  0  0  0  0  0  0  0
  1 17  1  0  0  0  0
  1 23  1  0  0  0  0
  2 31  1  0  0  0  0
  6 26  1  0  0  0  0
  7 34  2  0  0  0  0
  8 14  1  0  0  0  0
  9 14  2  0  0  0  0
 10 19  1  0  0  0  0
 10 20  1  0  0  0  0
 10 24  1  0  0  0  0
 11 21  1  0  0  0  0
 11 22  1  0  0  0  0
 11 25  1  0  0  0  0
 12 29  1  0  0  0  0
 12 34  1  0  0  0  0
 12 38  1  0  0  0  0
 13 30  1  0  0  0  0
 13 39  1  0  0  0  0
 13 40  1  0  0  0  0
 14 36  1  0  0  0  0
 15  3  1  1  0  0  0
 15 16  1  0  0  0  0
 15 17  1  0  0  0  0
 16  4  1  1  0  0  0
 16 18  1  0  0  0  0
 17 26  1  1  0  0  0
 18  5  1  6  0  0  0
 18 23  1  0  0  0  0
 19 21  1  0  0  0  0
 20 22  1  0  0  0  0
 23  2  1  6  0  0  0
 24 27  1  0  0  0  0
 25 28  1  0  0  0  0
 27 29  1  0  0  0  0
 28 30  1  0  0  0  0
 31 32  2  0  0  0  0
 31 35  1  0  0  0  0
 32 33  1  0  0  0  0
 33 34  1  0  0  0  0
 33 37  2  0  0  0  0
 35 36  2  0  0  0  0
 36 37  1  0  0  0  0
M  CHG  2   8  -1  14   1
M  END
>  <DATABASE_ID>
DB03235

>  <DATABASE_NAME>
drugbank

>  <SMILES>
[H]N([H])CCCN1CCN(CCCN([H])C(=O)C2=CC(=CC(O[C@H]3O[C@H](CO)[C@H](O)[C@H](O)[C@H]3O)=C2)[N+]([O-])=O)CC1

>  <INCHI_IDENTIFIER>
InChI=1S/C23H37N5O9/c24-3-1-5-26-7-9-27(10-8-26)6-2-4-25-22(33)15-11-16(28(34)35)13-17(12-15)36-23-21(32)20(31)19(30)18(14-29)37-23/h11-13,18-21,23,29-32H,1-10,14,24H2,(H,25,33)/t18-,19+,20+,21-,23+/m1/s1

>  <INCHI_KEY>
UEIGEWJJVQHIAX-MKQKURRLSA-N

>  <FORMULA>
C23H37N5O9

>  <MOLECULAR_WEIGHT>
527.568

>  <EXACT_MASS>
527.259127807

>  <JCHEM_ACCEPTOR_COUNT>
12

>  <JCHEM_ATOM_COUNT>
74

>  <JCHEM_AVERAGE_NEUTRAL_MICROSPECIES_CHARGE>
2.3103594724215606

>  <JCHEM_AVERAGE_POLARIZABILITY>
55.58931376629645

>  <JCHEM_BIOAVAILABILITY>
0

>  <JCHEM_DONOR_COUNT>
6

>  <JCHEM_FORMAL_CHARGE>
0

>  <JCHEM_GHOSE_FILTER>
0

>  <JCHEM_IUPAC>
N-{3-[4-(3-aminopropyl)piperazin-1-yl]propyl}-3-nitro-5-{[(2R,3R,4S,5R,6R)-3,4,5-trihydroxy-6-(hydroxymethyl)oxan-2-yl]oxy}benzamide

>  <ALOGPS_LOGP>
-0.30

>  <JCHEM_LOGP>
-2.395387279

>  <ALOGPS_LOGS>
-2.14

>  <JCHEM_MDDR_LIKE_RULE>
1

>  <JCHEM_NEUTRAL_CHARGE>
3

>  <JCHEM_NUMBER_OF_RINGS>
3

>  <JCHEM_PHYSIOLOGICAL_CHARGE>
2

>  <JCHEM_PKA>
12.95316908863819

>  <JCHEM_PKA_STRONGEST_ACIDIC>
12.163508478605266

>  <JCHEM_PKA_STRONGEST_BASIC>
9.875476241833946

>  <JCHEM_POLAR_SURFACE_AREA>
204.12000000000003

>  <JCHEM_REFRACTIVITY>
132.22869999999995

>  <JCHEM_ROTATABLE_BOND_COUNT>
12

>  <JCHEM_RULE_OF_FIVE>
0

>  <ALOGPS_SOLUBILITY>
3.81e+00 g/l

>  <JCHEM_TRADITIONAL_IUPAC>
N-{3-[4-(3-aminopropyl)piperazin-1-yl]propyl}-3-[2-(thiophen-2-yl)acetamido]-5-{[(2R,3R,4S,5R,6R)-3,4,5-trihydroxy-6-(hydroxymethyl)oxan-2-yl]oxy}benzamide

>  <JCHEM_VEBER_RULE>
0

>  <DRUGBANK_ID>
DB03235

>  <SECONDARY_ACCESSION_NUMBERS>
EXPT01954

>  <DRUG_GROUPS>
experimental

>  <GENERIC_NAME>
N-{3-[4-(3-aminopropyl)piperazin-1-yl]propyl}-3-(alpha-D-galactopyranosyloxy)-5-nitrobenzamide

$$$$

 OpenBabel05042401512D

 47 47  0  0  0  0  0  0  0  0999 V2000
   12.8605   20.6250    0.0000 C   0  0  0  0  0  0  0  0  0  0  0  0
   12.8605   19.8000    0.0000 C   0  0  0  0  0  0  0  0  0  0  0  0
   13.5749   19.3875    0.0000 C   0  0  0  0  0  0  0  0  0  0  0  0
   12.1460   19.3875    0.0000 C   0  0  0  0  0  0  0  0  0  0  0  0
   12.1460   18.5625    0.0000 C   0  0  0  0  0  0  0  0  0  0  0  0
   11.4315   18.1500    0.0000 C   0  0  0  0  0  0  0  0  0  0  0  0
   11.4315   17.3250    0.0000 C   0  0  0  0  0  0  0  0  0  0  0  0
   12.1460   16.9125    0.0000 C   0  0  0  0  0  0  0  0  0  0  0  0
   10.7171   16.9125    0.0000 C   0  0  0  0  0  0  0  0  0  0  0  0
   10.7171   16.0875    0.0000 C   0  0  0  0  0  0  0  0  0  0  0  0
   10.0026   15.6750    0.0000 C   0  0  0  0  0  0  0  0  0  0  0  0
   10.0026   14.8500    0.0000 C   0  0  0  0  0  0  0  0  0  0  0  0
   10.7171   14.4375    0.0000 C   0  0  0  0  0  0  0  0  0  0  0  0
    9.2881   14.4375    0.0000 C   0  0  0  0  0  0  0  0  0  0  0  0
    9.2881   13.6125    0.0000 C   0  0  0  0  0  0  0  0  0  0  0  0
    8.5737   13.2000    0.0000 C   0  0  0  0  0  0  0  0  0  0  0  0
    8.5737   12.3750    0.0000 C   0  0  0  0  0  0  0  0  0  0  0  0
    9.2881   11.9625    0.0000 C   0  0  0  0  0  0  0  0  0  0  0  0
    7.8592   11.9625    0.0000 C   0  0  0  0  0  0  0  0  0  0  0  0
    7.8592   11.1375    0.0000 C   0  0  0  0  0  0  0  0  0  0  0  0
    7.1447   10.7250    0.0000 C   0  0  0  0  0  0  0  0  0  0  0  0
    7.1447    9.9000    0.0000 C   0  0  0  0  0  0  0  0  0  0  0  0
    7.8592    9.4875    0.0000 C   0  0  0  0  0  0  0  0  0  0  0  0
    6.4302    9.4875    0.0000 C   0  0  0  0  0  0  0  0  0  0  0  0
    6.4302    8.6625    0.0000 C   0  0  0  0  0  0  0  0  0  0  0  0
    5.7158    8.2500    0.0000 C   0  0  0  0  0  0  0  0  0  0  0  0
    5.7158    7.4250    0.0000 C   0  0  0  0  0  0  0  0  0  0  0  0
    6.4302    7.0125    0.0000 C   0  0  0  0  0  0  0  0  0  0  0  0
    5.0013    7.0125    0.0000 C   0  0  0  0  0  0  0  0  0  0  0  0
    5.0013    6.1875    0.0000 C   0  0  0  0  0  0  0  0  0  0  0  0
    4.2868    5.7750    0.0000 C   0  0  0  0  0  0  0  0  0  0  0  0
    4.2868    4.9500    0.0000 C   0  0  0  0  0  0  0  0  0  0  0  0
    5.0013    4.5375    0.0000 C   0  0  0  0  0  0  0  0  0  0  0  0
    3.5724    4.5375    0.0000 C   0  0  0  0  0  0  0  0  0  0  0  0
    3.5724    3.7125    0.0000 C   0  0  0  0  0  0  0  0  0  0  0  0
    2.8579    3.3000    0.0000 C   0  0  0  0  0  0  0  0  0  0  0  0
    2.8579    2.4750    0.0000 C   0  0  0  0  0  0  0  0  0  0  0  0
    3.5724    2.0625    0.0000 C   0  0  0  0  0  0  0  0  0  0  0  0
    2.1434    2.0625    0.0000 C   0  0  0  0  0  0  0  0  0  0  0  0
    2.1434    1.2375    0.0000 C   0  0  0  0  0  0  0  0  0  0  0  0
    1.4289    0.8250    0.0000 C   0  0  0  0  0  0  0  0  0  0  0  0
    1.4289    0.0000    0.0000 C   0  0  0  0  0  0  0  0  0  0  0  0
    0.7145   -0.4125    0.0000 C   0  0  0  0  0  0  0  0  0  0  0  0
    0.0000    0.0000    0.0000 C   0  0  0  0  0  0  0  0  0  0  0  0
    0.0000    0.8250    0.0000 C   0  0  0  0  0  0  0  0  0  0  0  0
    0.7145    1.2375    0.0000 C   0  0  0  0  0  0  0  0  0  0  0  0
    0.7145    2.0625    0.0000 O   0  0  0  0  0  0  0  0  0  0  0  0
  1  2  1  0  0  0  0
  2  3  1  0  0  0  0
  2  4  2  0  0  0  0
  4  5  1  0  0  0  0
  5  6  1  0  0  0  0
  6  7  1  0  0  0  0
  7  8  1  0  0  0  0
  7  9  2  0  0  0  0
  9 10  1  0  0  0  0
 10 11  1  0  0  0  0
 11 12  1  0  0  0  0
 12 13  1  0  0  0  0
 12 14  2  0  0  0  0
 14 15  1  0  0  0  0
 15 16  1  0  0  0  0
 16 17  1  0  0  0  0
 17 18  1  0  0  0  0
 17 19  2  0  0  0  0
 19 20  1  0  0  0  0
 20 21  1  0  0  0  0
 21 22  1  0  0  0  0
 22 23  1  0  0  0  0
 22 24  2  0  0  0  0
 24 25  1  0  0  0  0
 25 26  1  0  0  0  0
 26 27  1  0  0  0  0
 27 28  1  0  0  0  0
 27 29  2  0  0  0  0
 29 30  1  0  0  0  0
 30 31  1  0  0  0  0
 31 32  1  0  0  0  0
 32 33  1  0  0  0  0
 32 34  2  0  0  0  0
 34 35  1  0  0  0  0
 35 36  1  0  0  0  0
 36 37  1  0  0  0  0
 37 38  1  0  0  0  0
 37 39  2  0  0  0  0
 39 40  1  0  0  0  0
 40 41  1  0  0  0  0
 41 42  2  0  0  0  0
 41 46  1  0  0  0  0
 42 43  1  0  0  0  0
 43 44  2  0  0  0  0
 44 45  1  0  0  0  0
 45 46  2  0  0  0  0
 46 47  1  0  0  0  0
M  END
>  <DATABASE_ID>
DB03232

>  <DATABASE_NAME>
drugbank

>  <SMILES>
CC(C)=CCC\C(C)=C\CC\C(C)=C\CC\C(C)=C\CC\C(C)=C\CC\C(C)=C\CC\C(C)=C\CC\C(C)=C\CC1=CC=CC=C1O

>  <INCHI_IDENTIFIER>
InChI=1S/C46H70O/c1-37(2)19-12-20-38(3)21-13-22-39(4)23-14-24-40(5)25-15-26-41(6)27-16-28-42(7)29-17-30-43(8)31-18-32-44(9)35-36-45-33-10-11-34-46(45)47/h10-11,19,21,23,25,27,29,31,33-35,47H,12-18,20,22,24,26,28,30,32,36H2,1-9H3/b38-21+,39-23+,40-25+,41-27+,42-29+,43-31+,44-35+

>  <INCHI_KEY>
VUNQJPPPTJIREN-CMAXTTDKSA-N

>  <FORMULA>
C46H70O

>  <MOLECULAR_WEIGHT>
639.0474

>  <EXACT_MASS>
638.542666862

>  <JCHEM_ACCEPTOR_COUNT>
1

>  <JCHEM_ATOM_COUNT>
117

>  <JCHEM_AVERAGE_NEUTRAL_MICROSPECIES_CHARGE>
-0.004618368241286762

>  <JCHEM_AVERAGE_POLARIZABILITY>
85.7275233912231

>  <JCHEM_BIOAVAILABILITY>
0

>  <JCHEM_DONOR_COUNT>
1

>  <JCHEM_FORMAL_CHARGE>
0

>  <JCHEM_GHOSE_FILTER>
0

>  <JCHEM_IUPAC>
2-[(2E,6E,10E,14E,18E,22E,26E)-3,7,11,15,19,23,27,31-octamethyldotriaconta-2,6,10,14,18,22,26,30-octaen-1-yl]phenol

>  <ALOGPS_LOGP>
10.01

>  <JCHEM_LOGP>
15.016247418666664

>  <ALOGPS_LOGS>
-6.45

>  <JCHEM_MDDR_LIKE_RULE>
0

>  <JCHEM_NEUTRAL_CHARGE>
0

>  <JCHEM_NUMBER_OF_RINGS>
1

>  <JCHEM_PHYSIOLOGICAL_CHARGE>
0

>  <JCHEM_PKA_STRONGEST_ACIDIC>
9.33350106421597

>  <JCHEM_PKA_STRONGEST_BASIC>
-6.00858421769504

>  <JCHEM_POLAR_SURFACE_AREA>
20.23

>  <JCHEM_REFRACTIVITY>
218.8999

>  <JCHEM_ROTATABLE_BOND_COUNT>
23

>  <JCHEM_RULE_OF_FIVE>
0

>  <ALOGPS_SOLUBILITY>
2.26e-04 g/l

>  <JCHEM_TRADITIONAL_IUPAC>
biotin

>  <JCHEM_VEBER_RULE>
0

>  <DRUGBANK_ID>
DB03232

>  <SECONDARY_ACCESSION_NUMBERS>
EXPT00337

>  <DRUG_GROUPS>
experimental

>  <GENERIC_NAME>
2-[(2e,6e,10e,14e,18e,22e,26e)-3,7,11,15,19,23,27,31-Octamethyldotriaconta-2,6,10,14,18,22,26,30-Octaenyl]Phenol

$$$$

 OpenBabel05042401512D

 35 37  0  0  1  0  0  0  0  0999 V2000
   -0.2169   -1.2405    0.0000 P   0  0  1  0  0  0  0  0  0  0  0  0
    1.0886   -1.8217    0.0000 P   0  0  2  0  0  0  0  0  0  0  0  0
   -1.7523    0.7927    0.0000 O   0  0  0  0  0  0  0  0  0  0  0  0
   -3.3173   -0.6592    0.0000 O   0  0  0  0  0  0  0  0  0  0  0  0
    3.2146   -2.3168    0.0000 O   0  0  0  0  0  0  0  0  0  0  0  0
   -0.7018   -0.5730    0.0000 O   0  0  0  0  0  0  0  0  0  0  0  0
    1.9091   -1.7355    0.0000 O   0  0  0  0  0  0  0  0  0  0  0  0
    2.2078   -4.5779    0.0000 O   0  0  0  0  0  0  0  0  0  0  0  0
    1.2379   -3.2430    0.0000 O   0  0  0  0  0  0  0  0  0  0  0  0
    3.8489   -4.4055    0.0000 O   0  0  0  0  0  0  0  0  0  0  0  0
    0.2680   -1.9080    0.0000 O   0  0  0  0  0  0  0  0  0  0  0  0
   -3.8489    2.1028    0.0000 O   0  0  0  0  0  0  0  0  0  0  0  0
    0.4506   -0.7556    0.0000 O   0  0  0  0  0  0  0  0  0  0  0  0
    1.1748   -2.6423    0.0000 O   0  0  0  0  0  0  0  0  0  0  0  0
   -0.8844   -1.7255    0.0000 O   0  0  0  0  0  0  0  0  0  0  0  0
    1.0023   -1.0012    0.0000 O   0  0  0  0  0  0  0  0  0  0  0  0
   -2.4198    4.5779    0.0000 O   0  0  0  0  0  0  0  0  0  0  0  0
   -2.4198    2.1028    0.0000 N   0  0  0  0  0  0  0  0  0  0  0  0
   -3.1344    3.3403    0.0000 N   0  0  0  0  0  0  0  0  0  0  0  0
   -2.8323    0.0081    0.0000 C   0  0  2  0  0  0  0  0  0  0  0  0
   -2.0073    0.0081    0.0000 C   0  0  1  0  0  0  0  0  0  0  0  0
   -3.0873    0.7927    0.0000 C   0  0  0  0  0  0  0  0  0  0  0  0
   -2.4198    1.2777    0.0000 C   0  0  1  0  0  0  0  0  0  0  0  0
   -1.5224   -0.6592    0.0000 C   0  0  0  0  0  0  0  0  0  0  0  0
    2.5434   -3.8242    0.0000 C   0  0  2  0  0  0  0  0  0  0  0  0
    2.0584   -3.1568    0.0000 C   0  0  2  0  0  0  0  0  0  0  0  0
    3.3639   -3.7379    0.0000 C   0  0  1  0  0  0  0  0  0  0  0  0
    2.3940   -2.4030    0.0000 C   0  0  2  0  0  0  0  0  0  0  0  0
    3.6995   -2.9842    0.0000 C   0  0  0  0  0  0  0  0  0  0  0  0
   -1.7053    2.5153    0.0000 C   0  0  0  0  0  0  0  0  0  0  0  0
   -3.1344    2.5153    0.0000 C   0  0  0  0  0  0  0  0  0  0  0  0
   -1.7053    3.3403    0.0000 C   0  0  0  0  0  0  0  0  0  0  0  0
   -2.4198    3.7529    0.0000 C   0  0  0  0  0  0  0  0  0  0  0  0
   -0.9908    3.7529    0.0000 C   0  0  0  0  0  0  0  0  0  0  0  0
   -3.5773    3.5961    0.0000 H   0  0  0  0  0  0  0  0  0  0  0  0
  1  6  1  6  0  0  0
  1 11  1  0  0  0  0
  1 13  1  0  0  0  0
  1 15  2  0  0  0  0
  2  7  1  1  0  0  0
  2 11  1  0  0  0  0
  2 14  1  0  0  0  0
  2 16  2  0  0  0  0
  3 21  1  0  0  0  0
  3 23  1  0  0  0  0
  5 28  1  0  0  0  0
  5 29  1  0  0  0  0
  6 24  1  0  0  0  0
 12 31  2  0  0  0  0
 17 33  2  0  0  0  0
 18 30  1  0  0  0  0
 18 31  1  0  0  0  0
 19 31  1  0  0  0  0
 19 33  1  0  0  0  0
 19 35  1  0  0  0  0
 20  4  1  1  0  0  0
 20 21  1  0  0  0  0
 20 22  1  0  0  0  0
 21 24  1  6  0  0  0
 22 23  1  0  0  0  0
 23 18  1  6  0  0  0
 25  8  1  6  0  0  0
 25 26  1  0  0  0  0
 25 27  1  0  0  0  0
 26  9  1  1  0  0  0
 26 28  1  0  0  0  0
 27 10  1  1  0  0  0
 27 29  1  0  0  0  0
 28  7  1  1  0  0  0
 30 32  2  0  0  0  0
 32 33  1  0  0  0  0
 32 34  1  0  0  0  0
M  END
>  <DATABASE_ID>
DB03161

>  <DATABASE_NAME>
drugbank

>  <SMILES>
[H]N1C(=O)N(C=C(C)C1=O)[C@H]1C[C@H](O)[C@@H](COP(O)(=O)OP(O)(=O)O[C@H]2OC[C@@H](O)[C@H](O)[C@H]2O)O1

>  <INCHI_IDENTIFIER>
InChI=1S/C15H24N2O15P2/c1-6-3-17(15(23)16-13(6)22)10-2-7(18)9(30-10)5-29-33(24,25)32-34(26,27)31-14-12(21)11(20)8(19)4-28-14/h3,7-12,14,18-21H,2,4-5H2,1H3,(H,24,25)(H,26,27)(H,16,22,23)/t7-,8+,9+,10+,11-,12+,14+/m0/s1

>  <INCHI_KEY>
AJUADKZRQSBUAK-KDGZBOQCSA-N

>  <FORMULA>
C15H24N2O15P2

>  <MOLECULAR_WEIGHT>
534.303

>  <EXACT_MASS>
534.065191132

>  <JCHEM_ACCEPTOR_COUNT>
12

>  <JCHEM_ATOM_COUNT>
58

>  <JCHEM_AVERAGE_POLARIZABILITY>
44.46022769160744

>  <JCHEM_BIOAVAILABILITY>
0

>  <JCHEM_DONOR_COUNT>
7

>  <JCHEM_FORMAL_CHARGE>
0

>  <JCHEM_GHOSE_FILTER>
0

>  <JCHEM_IUPAC>
{[hydroxy({[(2R,3R,4S,5R)-3,4,5-trihydroxyoxan-2-yl]oxy})phosphoryl]oxy}({[(2R,3S,5R)-3-hydroxy-5-(5-methyl-2,4-dioxo-1,2,3,4-tetrahydropyrimidin-1-yl)oxolan-2-yl]methoxy})phosphinic acid

>  <ALOGPS_LOGP>
-1.29

>  <JCHEM_LOGP>
-3.070084584333334

>  <ALOGPS_LOGS>
-1.67

>  <JCHEM_MDDR_LIKE_RULE>
1

>  <JCHEM_NUMBER_OF_RINGS>
3

>  <JCHEM_PHYSIOLOGICAL_CHARGE>
-2

>  <JCHEM_PKA>
3.176365422960129

>  <JCHEM_PKA_STRONGEST_ACIDIC>
1.7326574728244148

>  <JCHEM_PKA_STRONGEST_BASIC>
-3.2403442590943885

>  <JCHEM_POLAR_SURFACE_AREA>
251.07999999999998

>  <JCHEM_REFRACTIVITY>
103.33969999999998

>  <JCHEM_ROTATABLE_BOND_COUNT>
8

>  <JCHEM_RULE_OF_FIVE>
0

>  <ALOGPS_SOLUBILITY>
1.13e+01 g/l

>  <JCHEM_TRADITIONAL_IUPAC>
1lambda4-thia-2,3,4,5-tetracupratetracyclo[2.1.0.0^{1,3}.0^{2,5}]pentane

>  <JCHEM_VEBER_RULE>
0

>  <DRUGBANK_ID>
DB03161

>  <SECONDARY_ACCESSION_NUMBERS>
EXPT03034

>  <DRUG_GROUPS>
experimental

>  <GENERIC_NAME>
Thymidine-5'-diphospho-beta-D-xylose

$$$$
BGL
 OpenBabel05042401512D

 25 25  0  0  1  0  0  0  0  0999 V2000
   -2.4337    0.6377    0.0000 C   0  0  1  0  0  0  0  0  0  0  0  0
   -2.4337    1.4628    0.0000 O   0  0  0  0  0  0  0  0  0  0  0  0
   -1.7192    0.2253    0.0000 C   0  0  2  0  0  0  0  0  0  0  0  0
   -1.0048    0.6377    0.0000 O   0  0  0  0  0  0  0  0  0  0  0  0
   -1.7192   -0.5996    0.0000 C   0  0  1  0  0  0  0  0  0  0  0  0
   -1.0048   -1.0122    0.0000 O   0  0  0  0  0  0  0  0  0  0  0  0
   -2.4337   -1.0122    0.0000 C   0  0  2  0  0  0  0  0  0  0  0  0
   -2.4337   -1.8371    0.0000 O   0  0  0  0  0  0  0  0  0  0  0  0
   -3.1481   -0.5996    0.0000 C   0  0  2  0  0  0  0  0  0  0  0  0
   -3.1481    0.2253    0.0000 O   0  0  0  0  0  0  0  0  0  0  0  0
   -3.8626   -1.0122    0.0000 C   0  0  0  0  0  0  0  0  0  0  0  0
   -4.5770   -0.5996    0.0000 O   0  0  0  0  0  0  0  0  0  0  0  0
   -0.2903    0.2253    0.0000 C   0  0  0  0  0  0  0  0  0  0  0  0
    0.4241    0.6377    0.0000 C   0  0  0  0  0  0  0  0  0  0  0  0
    1.1386    0.2253    0.0000 C   0  0  0  0  0  0  0  0  0  0  0  0
    1.8530    0.6377    0.0000 C   0  0  0  0  0  0  0  0  0  0  0  0
    2.5676    0.2253    0.0000 C   0  0  0  0  0  0  0  0  0  0  0  0
    3.2819    0.6377    0.0000 C   0  0  0  0  0  0  0  0  0  0  0  0
    3.9964    0.2253    0.0000 C   0  0  0  0  0  0  0  0  0  0  0  0
    4.7110    0.6377    0.0000 C   0  0  0  0  0  0  0  0  0  0  0  0
   -2.0584    1.0851    0.0000 H   0  0  0  0  0  0  0  0  0  0  0  0
   -1.5195    0.7740    0.0000 H   0  0  0  0  0  0  0  0  0  0  0  0
   -1.2136   -0.3077    0.0000 H   0  0  0  0  0  0  0  0  0  0  0  0
   -1.9279   -1.3042    0.0000 H   0  0  0  0  0  0  0  0  0  0  0  0
   -3.1481   -1.1836    0.0000 H   0  0  0  0  0  0  0  0  0  0  0  0
  1  2  1  0  0  0  0
  1  3  1  0  0  0  0
  1 10  1  0  0  0  0
  1 21  1  6  0  0  0
  3  4  1  0  0  0  0
  3  5  1  0  0  0  0
  3 22  1  1  0  0  0
  4 13  1  0  0  0  0
  5  6  1  0  0  0  0
  5  7  1  0  0  0  0
  5 23  1  6  0  0  0
  7  8  1  0  0  0  0
  7  9  1  0  0  0  0
  7 24  1  1  0  0  0
  9 10  1  0  0  0  0
  9 11  1  0  0  0  0
  9 25  1  6  0  0  0
 11 12  1  0  0  0  0
 13 14  1  0  0  0  0
 14 15  1  0  0  0  0
 15 16  1  0  0  0  0
 16 17  1  0  0  0  0
 17 18  1  0  0  0  0
 18 19  1  0  0  0  0
 19 20  1  0  0  0  0
M  END
>  <DATABASE_ID>
DB03152

>  <DATABASE_NAME>
drugbank

>  <SMILES>
[H][C@@]1(O)O[C@]([H])(CO)[C@@]([H])(O)[C@]([H])(O)[C@@]1([H])OCCCCCCCC

>  <INCHI_IDENTIFIER>
InChI=1S/C14H28O6/c1-2-3-4-5-6-7-8-19-13-12(17)11(16)10(9-15)20-14(13)18/h10-18H,2-9H2,1H3/t10-,11-,12+,13-,14-/m1/s1

>  <INCHI_KEY>
BVHPDIWLWHHJPD-RKQHYHRCSA-N

>  <FORMULA>
C14H28O6

>  <MOLECULAR_WEIGHT>
292.3685

>  <EXACT_MASS>
292.188588628

>  <JCHEM_ACCEPTOR_COUNT>
6

>  <JCHEM_ATOM_COUNT>
48

>  <JCHEM_AVERAGE_NEUTRAL_MICROSPECIES_CHARGE>
-4.905250039898337e-05

>  <JCHEM_AVERAGE_POLARIZABILITY>
33.39282697686876

>  <JCHEM_BIOAVAILABILITY>
1

>  <JCHEM_DONOR_COUNT>
4

>  <JCHEM_FORMAL_CHARGE>
0

>  <JCHEM_GHOSE_FILTER>
1

>  <JCHEM_IUPAC>
(2R,3R,4S,5S,6R)-6-(hydroxymethyl)-3-(octyloxy)oxane-2,4,5-triol

>  <ALOGPS_LOGP>
1.20

>  <JCHEM_LOGP>
0.8127609603333328

>  <ALOGPS_LOGS>
-1.28

>  <JCHEM_MDDR_LIKE_RULE>
0

>  <JCHEM_NEUTRAL_CHARGE>
0

>  <JCHEM_NUMBER_OF_RINGS>
1

>  <JCHEM_PHYSIOLOGICAL_CHARGE>
0

>  <JCHEM_PKA>
12.788478169160266

>  <JCHEM_PKA_STRONGEST_ACIDIC>
11.326057034301938

>  <JCHEM_PKA_STRONGEST_BASIC>
-2.981079411309678

>  <JCHEM_POLAR_SURFACE_AREA>
99.38000000000001

>  <JCHEM_REFRACTIVITY>
72.9522

>  <JCHEM_ROTATABLE_BOND_COUNT>
9

>  <JCHEM_RULE_OF_FIVE>
1

>  <ALOGPS_SOLUBILITY>
1.52e+01 g/l

>  <JCHEM_TRADITIONAL_IUPAC>
biotin

>  <JCHEM_VEBER_RULE>
0

>  <DRUGBANK_ID>
DB03152

>  <SECONDARY_ACCESSION_NUMBERS>
EXPT00687

>  <DRUG_GROUPS>
experimental

>  <GENERIC_NAME>
B-2-Octylglucoside

$$$$
ESI
 OpenBabel05042401512D

 13 14  0  0  0  0  0  0  0  0999 V2000
   -0.8071    0.0999    0.0000 C   0  0  0  0  0  0  0  0  0  0  0  0
    0.0179    0.0999    0.0000 C   0  0  0  0  0  0  0  0  0  0  0  0
   -1.2196    0.8144    0.0000 N   0  0  0  0  0  0  0  0  0  0  0  0
   -1.2196   -0.6145    0.0000 N   0  3  0  0  0  0  0  0  0  0  0  0
    0.5029   -0.5675    0.0000 S   0  0  0  0  0  0  0  0  0  0  0  0
    1.2875   -0.3126    0.0000 C   0  0  0  0  0  0  0  0  0  0  0  0
    1.2875    0.5124    0.0000 C   0  0  0  0  0  0  0  0  0  0  0  0
    0.5029    0.7674    0.0000 C   0  0  0  0  0  0  0  0  0  0  0  0
    2.0019   -0.7251    0.0000 C   0  0  0  0  0  0  0  0  0  0  0  0
    2.7164   -0.3126    0.0000 C   0  0  0  0  0  0  0  0  0  0  0  0
    2.7164    0.5124    0.0000 C   0  0  0  0  0  0  0  0  0  0  0  0
    2.0019    0.9249    0.0000 C   0  0  0  0  0  0  0  0  0  0  0  0
    2.0019    1.7499    0.0000 I   0  0  0  0  0  0  0  0  0  0  0  0
  1  2  1  0  0  0  0
  1  3  1  0  0  0  0
  1  4  2  0  0  0  0
  2  5  1  0  0  0  0
  2  8  2  0  0  0  0
  5  6  1  0  0  0  0
  6  7  2  0  0  0  0
  6  9  1  0  0  0  0
  7  8  1  0  0  0  0
  7 12  1  0  0  0  0
  9 10  2  0  0  0  0
 10 11  1  0  0  0  0
 11 12  2  0  0  0  0
 12 13  1  0  0  0  0
M  CHG  1   4   1
M  END
>  <DATABASE_ID>
DB03136

>  <DATABASE_NAME>
drugbank

>  <SMILES>
NC(=[NH2+])C1=CC2=C(S1)C=CC=C2I

>  <INCHI_IDENTIFIER>
InChI=1S/C9H7IN2S/c10-6-2-1-3-7-5(6)4-8(13-7)9(11)12/h1-4H,(H3,11,12)/p+1

>  <INCHI_KEY>
YERQOXAYAFWFEJ-UHFFFAOYSA-O

>  <FORMULA>
C9H8IN2S

>  <MOLECULAR_WEIGHT>
303.143

>  <EXACT_MASS>
302.945287376

>  <JCHEM_ACCEPTOR_COUNT>
1

>  <JCHEM_ATOM_COUNT>
21

>  <JCHEM_AVERAGE_NEUTRAL_MICROSPECIES_CHARGE>
0.9749752919698907

>  <JCHEM_AVERAGE_POLARIZABILITY>
24.18925590009546

>  <JCHEM_BIOAVAILABILITY>
1

>  <JCHEM_DONOR_COUNT>
2

>  <JCHEM_FORMAL_CHARGE>
1

>  <JCHEM_GHOSE_FILTER>
1

>  <JCHEM_IUPAC>
[amino(4-iodo-1-benzothiophen-2-yl)methylidene]azanium

>  <ALOGPS_LOGP>
0.25

>  <JCHEM_LOGP>
2.831122985

>  <ALOGPS_LOGS>
-4.36

>  <JCHEM_MDDR_LIKE_RULE>
0

>  <JCHEM_NEUTRAL_CHARGE>
1

>  <JCHEM_NUMBER_OF_RINGS>
2

>  <JCHEM_PHYSIOLOGICAL_CHARGE>
1

>  <JCHEM_PKA_STRONGEST_BASIC>
8.590624590720346

>  <JCHEM_POLAR_SURFACE_AREA>
51.61

>  <JCHEM_REFRACTIVITY>
75.0172

>  <JCHEM_ROTATABLE_BOND_COUNT>
1

>  <JCHEM_RULE_OF_FIVE>
1

>  <ALOGPS_SOLUBILITY>
1.48e-02 g/l

>  <JCHEM_TRADITIONAL_IUPAC>
biotin

>  <JCHEM_VEBER_RULE>
0

>  <DRUGBANK_ID>
DB03136

>  <SECONDARY_ACCESSION_NUMBERS>
EXPT01360

>  <DRUG_GROUPS>
experimental

>  <GENERIC_NAME>
4-Iodobenzo[B]Thiophene-2-Carboxamidine

$$$$

 OpenBabel05042401512D

 31 34  0  0  0  0  0  0  0  0999 V2000
   -2.8579   -4.9500    0.0000 N   0  0  0  0  0  0  0  0  0  0  0  0
   -2.8579   -4.1250    0.0000 C   0  0  0  0  0  0  0  0  0  0  0  0
   -2.1434   -3.7125    0.0000 C   0  0  0  0  0  0  0  0  0  0  0  0
   -2.1434   -2.8875    0.0000 C   0  0  0  0  0  0  0  0  0  0  0  0
   -1.4289   -2.4750    0.0000 C   0  0  0  0  0  0  0  0  0  0  0  0
   -0.7145   -2.8875    0.0000 C   0  0  0  0  0  0  0  0  0  0  0  0
    0.0000   -2.4750    0.0000 N   0  0  0  0  0  0  0  0  0  0  0  0
    0.0000   -1.6500    0.0000 C   0  0  0  0  0  0  0  0  0  0  0  0
   -0.7145   -1.2375    0.0000 O   0  0  0  0  0  0  0  0  0  0  0  0
    0.7145   -1.2375    0.0000 C   0  0  0  0  0  0  0  0  0  0  0  0
    0.7145   -0.4125    0.0000 C   0  0  0  0  0  0  0  0  0  0  0  0
    1.4289    0.0000    0.0000 C   0  0  0  0  0  0  0  0  0  0  0  0
    1.4289    0.8250    0.0000 N   0  0  0  0  0  0  0  0  0  0  0  0
    2.1434    1.2375    0.0000 C   0  0  0  0  0  0  0  0  0  0  0  0
    2.1434    2.0625    0.0000 N   0  0  0  0  0  0  0  0  0  0  0  0
    2.8579    2.4750    0.0000 C   0  0  0  0  0  0  0  0  0  0  0  0
    3.5724    2.0625    0.0000 C   0  0  0  0  0  0  0  0  0  0  0  0
    3.5724    1.2375    0.0000 C   0  0  0  0  0  0  0  0  0  0  0  0
    2.8579    0.8250    0.0000 N   0  0  0  0  0  0  0  0  0  0  0  0
    2.1434   -0.4125    0.0000 C   0  0  0  0  0  0  0  0  0  0  0  0
    2.8579    0.0000    0.0000 C   0  0  0  0  0  0  0  0  0  0  0  0
    3.5724   -0.4125    0.0000 C   0  0  0  0  0  0  0  0  0  0  0  0
    3.5724   -1.2375    0.0000 C   0  0  0  0  0  0  0  0  0  0  0  0
    2.8579   -1.6500    0.0000 C   0  0  0  0  0  0  0  0  0  0  0  0
    2.1434   -1.2375    0.0000 C   0  0  0  0  0  0  0  0  0  0  0  0
    1.4289   -1.6500    0.0000 C   0  0  0  0  0  0  0  0  0  0  0  0
    4.2868    0.0000    0.0000 C   0  0  0  0  0  0  0  0  0  0  0  0
    5.0013   -0.4125    0.0000 N   0  0  0  0  0  0  0  0  0  0  0  0
    4.2868    0.8250    0.0000 N   0  0  0  0  0  0  0  0  0  0  0  0
   -0.7145   -3.7125    0.0000 C   0  0  0  0  0  0  0  0  0  0  0  0
   -1.4289   -4.1250    0.0000 C   0  0  0  0  0  0  0  0  0  0  0  0
  1  2  1  0  0  0  0
  2  3  1  0  0  0  0
  3  4  2  0  0  0  0
  3 31  1  0  0  0  0
  4  5  1  0  0  0  0
  5  6  2  0  0  0  0
  6  7  1  0  0  0  0
  6 30  1  0  0  0  0
  7  8  1  0  0  0  0
  8  9  2  0  0  0  0
  8 10  1  0  0  0  0
 10 11  2  0  0  0  0
 10 26  1  0  0  0  0
 11 12  1  0  0  0  0
 12 13  1  0  0  0  0
 12 20  2  0  0  0  0
 13 14  1  0  0  0  0
 14 15  2  0  0  0  0
 14 19  1  0  0  0  0
 15 16  1  0  0  0  0
 16 17  2  0  0  0  0
 17 18  1  0  0  0  0
 18 19  2  0  0  0  0
 20 21  1  0  0  0  0
 20 25  1  0  0  0  0
 21 22  2  0  0  0  0
 22 23  1  0  0  0  0
 22 27  1  0  0  0  0
 23 24  2  0  0  0  0
 24 25  1  0  0  0  0
 25 26  2  0  0  0  0
 27 28  1  0  0  0  0
 27 29  2  0  0  0  0
 30 31  2  0  0  0  0
M  END
>  <DATABASE_ID>
DB03082

>  <DATABASE_NAME>
drugbank

>  <SMILES>
NCC1=CC=C(NC(=O)C2=CC(NC3=NC=CC=N3)=C3C=C(C=CC3=C2)C(N)=N)C=C1

>  <INCHI_IDENTIFIER>
InChI=1S/C23H21N7O/c24-13-14-2-6-18(7-3-14)29-22(31)17-10-15-4-5-16(21(25)26)11-19(15)20(12-17)30-23-27-8-1-9-28-23/h1-12H,13,24H2,(H3,25,26)(H,29,31)(H,27,28,30)

>  <INCHI_KEY>
CSWQJKHBMACTGB-UHFFFAOYSA-N

>  <FORMULA>
C23H21N7O

>  <MOLECULAR_WEIGHT>
411.4591

>  <EXACT_MASS>
411.180758329

>  <JCHEM_ACCEPTOR_COUNT>
7

>  <JCHEM_ATOM_COUNT>
52

>  <JCHEM_AVERAGE_NEUTRAL_MICROSPECIES_CHARGE>
1.9944004020899198

>  <JCHEM_AVERAGE_POLARIZABILITY>
44.05416853792162

>  <JCHEM_BIOAVAILABILITY>
1

>  <JCHEM_DONOR_COUNT>
5

>  <JCHEM_FORMAL_CHARGE>
0

>  <JCHEM_GHOSE_FILTER>
0

>  <JCHEM_IUPAC>
N-[4-(aminomethyl)phenyl]-6-carbamimidoyl-4-[(pyrimidin-2-yl)amino]naphthalene-2-carboxamide

>  <ALOGPS_LOGP>
1.79

>  <JCHEM_LOGP>
1.9513267405025974

>  <ALOGPS_LOGS>
-4.55

>  <JCHEM_MDDR_LIKE_RULE>
1

>  <JCHEM_NEUTRAL_CHARGE>
2

>  <JCHEM_NUMBER_OF_RINGS>
4

>  <JCHEM_PHYSIOLOGICAL_CHARGE>
2

>  <JCHEM_PKA>
15.94020801911438

>  <JCHEM_PKA_STRONGEST_ACIDIC>
12.084352095702418

>  <JCHEM_PKA_STRONGEST_BASIC>
11.178238643822933

>  <JCHEM_POLAR_SURFACE_AREA>
142.79999999999998

>  <JCHEM_REFRACTIVITY>
133.28409999999997

>  <JCHEM_ROTATABLE_BOND_COUNT>
6

>  <JCHEM_RULE_OF_FIVE>
1

>  <ALOGPS_SOLUBILITY>
1.16e-02 g/l

>  <JCHEM_TRADITIONAL_IUPAC>
biotin

>  <JCHEM_VEBER_RULE>
0

>  <DRUGBANK_ID>
DB03082

>  <SECONDARY_ACCESSION_NUMBERS>
EXPT03178

>  <DRUG_GROUPS>
experimental

>  <GENERIC_NAME>
6-[(Z)-Amino(Imino)Methyl]-N-[4-(Aminomethyl)Phenyl]-4-(Pyrimidin-2-Ylamino)-2-Naphthamide

$$$$

 OpenBabel05042401512D

 20 20  0  0  1  0  0  0  0  0999 V2000
   18.5693   -4.0947    0.0000 P   0  0  0  0  0  0  0  0  0  0  0  0
   16.4258   -7.8072    0.0000 P   0  0  0  0  0  0  0  0  0  0  0  0
   17.8548   -4.5072    0.0000 O   0  0  0  0  0  0  0  0  0  0  0  0
   16.4258   -6.9821    0.0000 O   0  0  0  0  0  0  0  0  0  0  0  0
   16.4258   -5.3322    0.0000 O   0  0  0  0  0  0  0  0  0  0  0  0
   19.2838   -5.3322    0.0000 O   0  0  0  0  0  0  0  0  0  0  0  0
   17.8548   -7.8072    0.0000 O   0  0  0  0  0  0  0  0  0  0  0  0
   19.2838   -6.9821    0.0000 O   0  0  0  0  0  0  0  0  0  0  0  0
   19.2838   -3.6822    0.0000 O   0  0  0  0  0  0  0  0  0  0  0  0
   18.1568   -3.3802    0.0000 O   0  0  0  0  0  0  0  0  0  0  0  0
   15.6009   -7.8072    0.0000 O   0  0  0  0  0  0  0  0  0  0  0  0
   16.4258   -8.6322    0.0000 O   0  0  0  0  0  0  0  0  0  0  0  0
   18.9818   -4.8090    0.0000 O   0  0  0  0  0  0  0  0  0  0  0  0
   17.2508   -7.8072    0.0000 O   0  0  0  0  0  0  0  0  0  0  0  0
   17.8548   -5.3322    0.0000 C   0  0  1  0  0  0  0  0  0  0  0  0
   17.1404   -6.5697    0.0000 C   0  0  2  0  0  0  0  0  0  0  0  0
   17.1404   -5.7447    0.0000 C   0  0  2  0  0  0  0  0  0  0  0  0
   18.5693   -5.7447    0.0000 C   0  0  2  0  0  0  0  0  0  0  0  0
   17.8548   -6.9821    0.0000 C   0  0  1  0  0  0  0  0  0  0  0  0
   18.5693   -6.5697    0.0000 C   0  0  1  0  0  0  0  0  0  0  0  0
  1  3  1  0  0  0  0
  1  9  1  0  0  0  0
  1 10  1  0  0  0  0
  1 13  2  0  0  0  0
  2  4  1  0  0  0  0
  2 11  1  0  0  0  0
  2 12  1  0  0  0  0
  2 14  2  0  0  0  0
 15  3  1  6  0  0  0
 15 17  1  0  0  0  0
 15 18  1  0  0  0  0
 16  4  1  6  0  0  0
 16 17  1  0  0  0  0
 16 19  1  0  0  0  0
 17  5  1  6  0  0  0
 18  6  1  1  0  0  0
 18 20  1  0  0  0  0
 19  7  1  1  0  0  0
 19 20  1  0  0  0  0
 20  8  1  6  0  0  0
M  END
>  <DATABASE_ID>
DB02942

>  <DATABASE_NAME>
drugbank

>  <SMILES>
O[C@H]1[C@H](O)[C@@H](OP(O)(O)=O)[C@@H](O)[C@@H](OP(O)(O)=O)[C@@H]1O

>  <INCHI_IDENTIFIER>
InChI=1S/C6H14O12P2/c7-1-2(8)5(17-19(11,12)13)4(10)6(3(1)9)18-20(14,15)16/h1-10H,(H2,11,12,13)(H2,14,15,16)/t1-,2-,3+,4+,5+,6-

>  <INCHI_KEY>
PUVHMWJJTITUGO-FICORBCRSA-N

>  <FORMULA>
C6H14O12P2

>  <MOLECULAR_WEIGHT>
340.1157

>  <EXACT_MASS>
339.996048936

>  <JCHEM_ACCEPTOR_COUNT>
10

>  <JCHEM_ATOM_COUNT>
34

>  <JCHEM_AVERAGE_NEUTRAL_MICROSPECIES_CHARGE>
-3.889796185353392

>  <JCHEM_AVERAGE_POLARIZABILITY>
25.066498865122345

>  <JCHEM_BIOAVAILABILITY>
0

>  <JCHEM_DONOR_COUNT>
8

>  <JCHEM_FORMAL_CHARGE>
0

>  <JCHEM_GHOSE_FILTER>
0

>  <JCHEM_IUPAC>
{[(1S,2R,3s,4S,5R,6s)-2,3,4,6-tetrahydroxy-5-(phosphonooxy)cyclohexyl]oxy}phosphonic acid

>  <ALOGPS_LOGP>
-1.32

>  <JCHEM_LOGP>
-4.029141714666666

>  <ALOGPS_LOGS>
-1.15

>  <JCHEM_MDDR_LIKE_RULE>
0

>  <JCHEM_NEUTRAL_CHARGE>
-4

>  <JCHEM_NUMBER_OF_RINGS>
1

>  <JCHEM_PHYSIOLOGICAL_CHARGE>
-4

>  <JCHEM_PKA>
1.4625057588065755

>  <JCHEM_PKA_STRONGEST_ACIDIC>
0.858068096231199

>  <JCHEM_PKA_STRONGEST_BASIC>
-3.6477610955690793

>  <JCHEM_POLAR_SURFACE_AREA>
214.43999999999997

>  <JCHEM_REFRACTIVITY>
57.520799999999994

>  <JCHEM_ROTATABLE_BOND_COUNT>
4

>  <JCHEM_RULE_OF_FIVE>
0

>  <ALOGPS_SOLUBILITY>
2.39e+01 g/l

>  <JCHEM_TRADITIONAL_IUPAC>
biotin

>  <JCHEM_VEBER_RULE>
0

>  <DRUGBANK_ID>
DB02942

>  <SECONDARY_ACCESSION_NUMBERS>
EXPT01941

>  <DRUG_GROUPS>
experimental

>  <GENERIC_NAME>
Inositol 1,3-Bisphosphate

$$$$

 OpenBabel05042401512D

 36 38  0  0  1  0  0  0  0  0999 V2000
   -1.7545    2.9736    0.0000 S   0  0  0  0  0  0  0  0  0  0  0  0
    3.9641   -0.0167    0.0000 O   0  0  0  0  0  0  0  0  0  0  0  0
    0.7895    0.1662    0.0000 O   0  0  0  0  0  0  0  0  0  0  0  0
    1.4501    2.5043    0.0000 O   0  0  0  0  0  0  0  0  0  0  0  0
   -0.0354    3.0242    0.0000 O   0  0  0  0  0  0  0  0  0  0  0  0
    2.5120    1.5481    0.0000 N   0  0  0  0  0  0  0  0  0  0  0  0
    0.7895    1.5951    0.0000 N   0  0  0  0  0  0  0  0  0  0  0  0
   -1.7545    1.6457    0.0000 N   0  0  0  0  0  0  0  0  0  0  0  0
   -0.0354   -1.2628    0.0000 N   0  0  0  0  0  0  0  0  0  0  0  0
   -1.2729   -1.9772    0.0000 N   0  0  0  0  0  0  0  0  0  0  0  0
   -0.0354   -2.6917    0.0000 N   0  0  0  0  0  0  0  0  0  0  0  0
    2.0271    0.8807    0.0000 C   0  0  1  0  0  0  0  0  0  0  0  0
    2.5120    0.2132    0.0000 C   0  0  0  0  0  0  0  0  0  0  0  0
    3.2967    0.4681    0.0000 C   0  0  2  0  0  0  0  0  0  0  0  0
    3.2967    1.2932    0.0000 C   0  0  0  0  0  0  0  0  0  0  0  0
    1.2020    0.8807    0.0000 C   0  0  0  0  0  0  0  0  0  0  0  0
    2.2571    2.3328    0.0000 C   0  0  0  0  0  0  0  0  0  0  0  0
   -0.0354    1.5951    0.0000 C   0  0  1  0  0  0  0  0  0  0  0  0
   -0.4479    0.8807    0.0000 C   0  0  0  0  0  0  0  0  0  0  0  0
    2.8092    2.9459    0.0000 C   0  0  0  0  0  0  0  0  0  0  0  0
   -0.0354    0.1662    0.0000 C   0  0  0  0  0  0  0  0  0  0  0  0
   -0.4479    2.3096    0.0000 C   0  0  0  0  0  0  0  0  0  0  0  0
   -0.4479   -0.5481    0.0000 C   0  0  0  0  0  0  0  0  0  0  0  0
   -1.2729    2.3096    0.0000 C   0  0  0  0  0  0  0  0  0  0  0  0
   -2.5350    2.7222    0.0000 C   0  0  0  0  0  0  0  0  0  0  0  0
   -2.5350    1.8972    0.0000 C   0  0  0  0  0  0  0  0  0  0  0  0
   -3.2496    3.1347    0.0000 C   0  0  0  0  0  0  0  0  0  0  0  0
   -3.2496    1.4847    0.0000 C   0  0  0  0  0  0  0  0  0  0  0  0
   -0.4479   -1.9772    0.0000 C   0  0  0  0  0  0  0  0  0  0  0  0
   -3.9641    2.7222    0.0000 C   0  0  0  0  0  0  0  0  0  0  0  0
   -3.9641    1.8972    0.0000 C   0  0  0  0  0  0  0  0  0  0  0  0
    1.0453    2.0382    0.0000 H   0  0  0  0  0  0  0  0  0  0  0  0
   -1.5287   -1.5343    0.0000 H   0  0  0  0  0  0  0  0  0  0  0  0
   -1.5287   -2.4202    0.0000 H   0  0  0  0  0  0  0  0  0  0  0  0
    0.4761   -2.6917    0.0000 H   0  0  0  0  0  0  0  0  0  0  0  0
   -0.2912   -3.1347    0.0000 H   0  0  0  0  0  0  0  0  0  0  0  0
  1 24  1  0  0  0  0
  1 25  1  0  0  0  0
  3 16  2  0  0  0  0
  4 17  2  0  0  0  0
  5 22  2  0  0  0  0
  6 12  1  0  0  0  0
  6 15  1  0  0  0  0
  6 17  1  0  0  0  0
  7 16  1  0  0  0  0
  7 32  1  0  0  0  0
  8 24  2  0  0  0  0
  8 26  1  0  0  0  0
  9 23  1  0  0  0  0
  9 29  2  0  0  0  0
 10 29  1  0  0  0  0
 10 33  1  0  0  0  0
 10 34  1  0  0  0  0
 11 29  1  0  0  0  0
 11 35  1  0  0  0  0
 11 36  1  0  0  0  0
 12 13  1  0  0  0  0
 12 16  1  1  0  0  0
 13 14  1  0  0  0  0
 14  2  1  6  0  0  0
 14 15  1  0  0  0  0
 17 20  1  0  0  0  0
 18  7  1  1  0  0  0
 18 19  1  0  0  0  0
 18 22  1  0  0  0  0
 19 21  1  0  0  0  0
 21 23  1  0  0  0  0
 22 24  1  0  0  0  0
 25 26  1  0  0  0  0
 25 27  2  0  0  0  0
 26 28  2  0  0  0  0
 27 30  1  0  0  0  0
 28 31  1  0  0  0  0
 30 31  2  0  0  0  0
M  END
>  <DATABASE_ID>
DB02812

>  <DATABASE_NAME>
drugbank

>  <SMILES>
[H]N([H])C(=NCCC[C@H](N([H])C(=O)[C@@H]1C[C@@H](O)CN1C(C)=O)C(=O)C1=NC2=CC=CC=C2S1)N([H])[H]

>  <INCHI_IDENTIFIER>
InChI=1S/C20H26N6O4S/c1-11(27)26-10-12(28)9-15(26)18(30)24-14(6-4-8-23-20(21)22)17(29)19-25-13-5-2-3-7-16(13)31-19/h2-3,5,7,12,14-15,28H,4,6,8-10H2,1H3,(H,24,30)(H4,21,22,23)/t12-,14+,15+/m1/s1

>  <INCHI_KEY>
VXDAVYUFYPFGDX-SNPRPXQTSA-N

>  <FORMULA>
C20H26N6O4S

>  <MOLECULAR_WEIGHT>
446.523

>  <EXACT_MASS>
446.17362404

>  <JCHEM_ACCEPTOR_COUNT>
8

>  <JCHEM_ATOM_COUNT>
57

>  <JCHEM_AVERAGE_POLARIZABILITY>
46.337256510382595

>  <JCHEM_BIOAVAILABILITY>
1

>  <JCHEM_DONOR_COUNT>
4

>  <JCHEM_FORMAL_CHARGE>
0

>  <JCHEM_GHOSE_FILTER>
0

>  <JCHEM_IUPAC>
(2S,4R)-1-acetyl-N-[(2S)-1-(1,3-benzothiazol-2-yl)-5-[(diaminomethylidene)amino]-1-oxopentan-2-yl]-4-hydroxypyrrolidine-2-carboxamide

>  <ALOGPS_LOGP>
-0.01

>  <JCHEM_LOGP>
-1.0663949550604053

>  <ALOGPS_LOGS>
-3.49

>  <JCHEM_MDDR_LIKE_RULE>
1

>  <JCHEM_NUMBER_OF_RINGS>
3

>  <JCHEM_PHYSIOLOGICAL_CHARGE>
1

>  <JCHEM_PKA>
14.816997433526502

>  <JCHEM_PKA_STRONGEST_ACIDIC>
12.2681806411242

>  <JCHEM_PKA_STRONGEST_BASIC>
11.054384079711545

>  <JCHEM_POLAR_SURFACE_AREA>
164.0

>  <JCHEM_REFRACTIVITY>
113.74350000000003

>  <JCHEM_ROTATABLE_BOND_COUNT>
8

>  <JCHEM_RULE_OF_FIVE>
1

>  <ALOGPS_SOLUBILITY>
1.44e-01 g/l

>  <JCHEM_TRADITIONAL_IUPAC>
[(1R,2S,6S,9R,11S)-11-(hydroxymethyl)-4,4,11-trimethyl-3,5,7,10,12-pentaoxatricyclo[7.3.0.0^{2,6}]dodecan-6-yl]methyl sulfamate

>  <JCHEM_VEBER_RULE>
0

>  <DRUGBANK_ID>
DB02812

>  <SECONDARY_ACCESSION_NUMBERS>
EXPT00391

>  <DRUG_GROUPS>
experimental

>  <GENERIC_NAME>
RWJ-56423

>  <SYNONYMS>
(2S,4R)-1-acetyl-N-[(2S)-1-(1,3-benzothiazol-2-yl)-5-(diaminomethylideneamino)-1-oxopentan-2-yl]-4-hydroxypyrrolidine-2-carboxamide

$$$$

 OpenBabel05042401512D

 29 28  0  0  0  0  0  0  0  0999 V2000
    2.0625   -0.7145    0.0000 C   0  0  0  0  0  0  0  0  0  0  0  0
    0.6336   -0.7145    0.0000 C   0  0  0  0  0  0  0  0  0  0  0  0
    5.6349   -0.3020    0.0000 C   0  0  0  0  0  0  0  0  0  0  0  0
    1.3480    0.5230    0.0000 C   0  0  0  0  0  0  0  0  0  0  0  0
    2.7770   -0.3020    0.0000 C   0  0  0  0  0  0  0  0  0  0  0  0
    4.9204   -0.7145    0.0000 C   0  0  0  0  0  0  0  0  0  0  0  0
    0.6336   -1.5395    0.0000 C   0  0  0  0  0  0  0  0  0  0  0  0
    3.4914   -0.7145    0.0000 C   0  0  0  0  0  0  0  0  0  0  0  0
    4.2059   -0.3020    0.0000 C   0  0  0  0  0  0  0  0  0  0  0  0
    1.3480   -0.3020    0.0000 N   0  0  0  0  0  0  0  0  0  0  0  0
    2.7770    0.5230    0.0000 O   0  0  0  0  0  0  0  0  0  0  0  0
    4.9204   -1.5395    0.0000 O   0  0  0  0  0  0  0  0  0  0  0  0
    1.3480   -1.9520    0.0000 O   0  0  0  0  0  0  0  0  0  0  0  0
   -0.0809   -1.9520    0.0000 O   0  0  0  0  0  0  0  0  0  0  0  0
    3.4914   -1.5395    0.0000 O   0  0  0  0  0  0  0  0  0  0  0  0
    4.2059    0.5230    0.0000 O   0  0  0  0  0  0  0  0  0  0  0  0
    0.2211    0.2211    0.0000 O   0  0  0  0  0  0  0  0  0  0  0  0
   -0.0809    1.3480    0.0000 O   0  0  0  0  0  0  0  0  0  0  0  0
    1.0461    1.6500    0.0000 O   0  0  0  0  0  0  0  0  0  0  0  0
    7.7783    0.1105    0.0000 O   0  0  0  0  0  0  0  0  0  0  0  0
    7.4763   -1.0164    0.0000 O   0  0  0  0  0  0  0  0  0  0  0  0
    6.6513    0.4125    0.0000 O   0  0  0  0  0  0  0  0  0  0  0  0
    6.3493   -0.7145    0.0000 O   0  0  0  0  0  0  0  0  0  0  0  0
    0.6336    0.9355    0.0000 P   0  0  0  0  0  0  0  0  0  0  0  0
    7.0638   -0.3020    0.0000 P   0  0  0  0  0  0  0  0  0  0  0  0
    2.7770   -1.1270    0.0000 H   0  0  0  0  0  0  0  0  0  0  0  0
    4.9204    0.1105    0.0000 H   0  0  0  0  0  0  0  0  0  0  0  0
    3.4914    0.1105    0.0000 H   0  0  0  0  0  0  0  0  0  0  0  0
    4.2059   -1.1270    0.0000 H   0  0  0  0  0  0  0  0  0  0  0  0
  5  1  1  0  0  0  0
  5 11  1  0  0  0  0
  5 26  1  0  0  0  0
  6  3  1  0  0  0  0
  6 12  1  0  0  0  0
  6 27  1  0  0  0  0
  7  2  1  0  0  0  0
  8  5  1  0  0  0  0
  8 15  1  0  0  0  0
  8 28  1  0  0  0  0
  9  6  1  0  0  0  0
  9  8  1  0  0  0  0
  9 16  1  0  0  0  0
  9 29  1  0  0  0  0
 10  1  1  0  0  0  0
 10  2  1  0  0  0  0
 10  4  1  0  0  0  0
 13  7  1  0  0  0  0
 14  7  1  0  0  0  0
 23  3  1  0  0  0  0
 24  4  1  0  0  0  0
 24 17  1  0  0  0  0
 24 18  1  0  0  0  0
 24 19  2  0  0  0  0
 25 20  1  0  0  0  0
 25 21  1  0  0  0  0
 25 22  2  0  0  0  0
 25 23  1  0  0  0  0
M  END
>  <DATABASE_ID>
DB02433

>  <DATABASE_NAME>
drugbank

>  <SMILES>
[H][C@@](O)(COP(O)(O)=O)[C@@]([H])(O)[C@]([H])(O)[C@]([H])(O)CN(CC(O)O)CP(O)(O)=O

>  <INCHI_IDENTIFIER>
InChI=1S/C9H23NO13P2/c11-5(1-10(2-7(13)14)4-24(17,18)19)8(15)9(16)6(12)3-23-25(20,21)22/h5-9,11-16H,1-4H2,(H2,17,18,19)(H2,20,21,22)/t5-,6-,8-,9-/m1/s1

>  <INCHI_KEY>
ATILYNKCRYHYEP-SQEXRHODSA-N

>  <FORMULA>
C9H23NO13P2

>  <MOLECULAR_WEIGHT>
415.2253

>  <EXACT_MASS>
415.064462851

>  <JCHEM_ACCEPTOR_COUNT>
13

>  <JCHEM_ATOM_COUNT>
48

>  <JCHEM_AVERAGE_NEUTRAL_MICROSPECIES_CHARGE>
-2.7031282156891905

>  <JCHEM_AVERAGE_POLARIZABILITY>
33.93863809950066

>  <JCHEM_BIOAVAILABILITY>
0

>  <JCHEM_DONOR_COUNT>
10

>  <JCHEM_FORMAL_CHARGE>
0

>  <JCHEM_GHOSE_FILTER>
0

>  <JCHEM_IUPAC>
{[(2R,3R,4R,5R)-6-[(2,2-dihydroxyethyl)(phosphonomethyl)amino]-2,3,4,5-tetrahydroxyhexyl]oxy}phosphonic acid

>  <ALOGPS_LOGP>
-1.94

>  <JCHEM_LOGP>
-7.002513330071675

>  <ALOGPS_LOGS>
-1.37

>  <JCHEM_MDDR_LIKE_RULE>
0

>  <JCHEM_NEUTRAL_CHARGE>
-3

>  <JCHEM_NUMBER_OF_RINGS>
0

>  <JCHEM_PHYSIOLOGICAL_CHARGE>
-3

>  <JCHEM_PKA>
1.494183852398998

>  <JCHEM_PKA_STRONGEST_ACIDIC>
-0.7957312682973527

>  <JCHEM_PKA_STRONGEST_BASIC>
6.708178025531516

>  <JCHEM_POLAR_SURFACE_AREA>
248.90999999999997

>  <JCHEM_REFRACTIVITY>
78.9022

>  <JCHEM_ROTATABLE_BOND_COUNT>
12

>  <JCHEM_RULE_OF_FIVE>
0

>  <ALOGPS_SOLUBILITY>
1.78e+01 g/l

>  <JCHEM_TRADITIONAL_IUPAC>
biotin

>  <JCHEM_VEBER_RULE>
0

>  <DRUGBANK_ID>
DB02433

>  <SECONDARY_ACCESSION_NUMBERS>
EXPT02492

>  <DRUG_GROUPS>
experimental

>  <GENERIC_NAME>
{[(2,2-Dihydroxy-Ethyl)-(2,3,4,5-Tetrahydroxy-6-Phosphonooxy-Hexyl)-Amino]-Methyl}-Phosphonic Acid

$$$$

 OpenBabel05042401512D

 38 40  0  0  0  0  0  0  0  0999 V2000
   -5.9189   -5.3448    0.0000 C   0  0  0  0  0  0  0  0  0  0  0  0
   -5.1343   -5.5997    0.0000 C   0  0  0  0  0  0  0  0  0  0  0  0
   -4.5212   -5.0477    0.0000 C   0  0  0  0  0  0  0  0  0  0  0  0
   -4.9627   -6.4067    0.0000 C   0  0  0  0  0  0  0  0  0  0  0  0
   -4.2091   -6.7422    0.0000 C   0  0  0  0  0  0  0  0  0  0  0  0
   -4.2953   -7.5627    0.0000 N   0  0  0  0  0  0  0  0  0  0  0  0
   -5.1023   -7.7342    0.0000 C   0  0  0  0  0  0  0  0  0  0  0  0
   -5.4378   -8.4879    0.0000 N   0  0  0  0  0  0  0  0  0  0  0  0
   -6.2583   -8.5741    0.0000 C   0  0  0  0  0  0  0  0  0  0  0  0
   -6.7432   -7.9067    0.0000 O   0  0  0  0  0  0  0  0  0  0  0  0
   -6.5939   -9.3278    0.0000 C   0  0  0  0  0  0  0  0  0  0  0  0
   -6.1814  -10.0423    0.0000 C   0  0  0  0  0  0  0  0  0  0  0  0
   -6.7334  -10.6554    0.0000 C   0  0  0  0  0  0  0  0  0  0  0  0
   -6.5619  -11.4624    0.0000 N   0  0  0  0  0  0  0  0  0  0  0  0
   -7.1750  -12.0144    0.0000 C   0  0  0  0  0  0  0  0  0  0  0  0
   -7.9596  -11.7595    0.0000 O   0  0  0  0  0  0  0  0  0  0  0  0
   -7.0034  -12.8214    0.0000 C   0  0  0  0  0  0  0  0  0  0  0  0
   -6.2498  -13.1569    0.0000 C   0  0  0  0  0  0  0  0  0  0  0  0
   -6.3360  -13.9774    0.0000 C   0  0  0  0  0  0  0  0  0  0  0  0
   -5.7229  -14.5294    0.0000 N   0  0  0  0  0  0  0  0  0  0  0  0
   -5.8944  -15.3364    0.0000 C   0  0  0  0  0  0  0  0  0  0  0  0
   -5.2813  -15.8884    0.0000 O   0  0  0  0  0  0  0  0  0  0  0  0
   -7.1430  -14.1489    0.0000 C   0  0  0  0  0  0  0  0  0  0  0  0
   -7.5555  -13.4345    0.0000 N   0  0  0  0  0  0  0  0  0  0  0  0
   -8.3760  -13.3482    0.0000 C   0  0  0  0  0  0  0  0  0  0  0  0
   -7.4871  -10.3198    0.0000 C   0  0  0  0  0  0  0  0  0  0  0  0
   -7.4008   -9.4994    0.0000 N   0  0  0  0  0  0  0  0  0  0  0  0
   -8.0139   -8.9473    0.0000 C   0  0  0  0  0  0  0  0  0  0  0  0
   -5.5148   -7.0198    0.0000 S   0  0  0  0  0  0  0  0  0  0  0  0
   -3.4946   -6.3297    0.0000 C   0  0  0  0  0  0  0  0  0  0  0  0
   -3.4946   -5.5047    0.0000 O   0  0  0  0  0  0  0  0  0  0  0  0
   -2.7801   -6.7422    0.0000 N   0  0  0  0  0  0  0  0  0  0  0  0
   -2.0656   -6.3297    0.0000 C   0  0  0  0  0  0  0  0  0  0  0  0
   -1.3512   -6.7422    0.0000 C   0  0  0  0  0  0  0  0  0  0  0  0
   -0.6367   -6.3297    0.0000 C   0  0  0  0  0  0  0  0  0  0  0  0
    0.0778   -6.7422    0.0000 N   0  0  0  0  0  0  0  0  0  0  0  0
    0.7922   -6.3297    0.0000 C   0  0  0  0  0  0  0  0  0  0  0  0
    0.0778   -7.5672    0.0000 C   0  0  0  0  0  0  0  0  0  0  0  0
  1  2  1  0  0  0  0
  2  3  1  0  0  0  0
  2  4  1  0  0  0  0
  4  5  2  0  0  0  0
  4 29  1  0  0  0  0
  5  6  1  0  0  0  0
  5 30  1  0  0  0  0
  6  7  2  0  0  0  0
  7  8  1  0  0  0  0
  7 29  1  0  0  0  0
  8  9  1  0  0  0  0
  9 10  2  0  0  0  0
  9 11  1  0  0  0  0
 11 12  2  0  0  0  0
 11 27  1  0  0  0  0
 12 13  1  0  0  0  0
 13 14  1  0  0  0  0
 13 26  2  0  0  0  0
 14 15  1  0  0  0  0
 15 16  2  0  0  0  0
 15 17  1  0  0  0  0
 17 18  2  0  0  0  0
 17 24  1  0  0  0  0
 18 19  1  0  0  0  0
 19 20  1  0  0  0  0
 19 23  2  0  0  0  0
 20 21  1  0  0  0  0
 21 22  2  0  0  0  0
 23 24  1  0  0  0  0
 24 25  1  0  0  0  0
 26 27  1  0  0  0  0
 27 28  1  0  0  0  0
 30 31  2  0  0  0  0
 30 32  1  0  0  0  0
 32 33  1  0  0  0  0
 33 34  1  0  0  0  0
 34 35  1  0  0  0  0
 35 36  1  0  0  0  0
 36 37  1  0  0  0  0
 36 38  1  0  0  0  0
M  END
>  <DATABASE_ID>
DB02295

>  <DATABASE_NAME>
drugbank

>  <SMILES>
CC(C)C1=C(N=C(NC(=O)C2=CC(NC(=O)C3=CC(NC=O)=CN3C)=CN2C)S1)C(=O)NCCCN(C)C

>  <INCHI_IDENTIFIER>
InChI=1S/C25H34N8O4S/c1-15(2)21-20(24(37)26-8-7-9-31(3)4)29-25(38-21)30-23(36)19-11-17(13-33(19)6)28-22(35)18-10-16(27-14-34)12-32(18)5/h10-15H,7-9H2,1-6H3,(H,26,37)(H,27,34)(H,28,35)(H,29,30,36)

>  <INCHI_KEY>
VDYCDKRATGWFDA-UHFFFAOYSA-N

>  <FORMULA>
C25H34N8O4S

>  <MOLECULAR_WEIGHT>
542.654

>  <EXACT_MASS>
542.242372306

>  <JCHEM_ACCEPTOR_COUNT>
6

>  <JCHEM_ATOM_COUNT>
72

>  <JCHEM_AVERAGE_NEUTRAL_MICROSPECIES_CHARGE>
0.9949445721301017

>  <JCHEM_AVERAGE_POLARIZABILITY>
60.37268288992112

>  <JCHEM_BIOAVAILABILITY>
0

>  <JCHEM_DONOR_COUNT>
4

>  <JCHEM_FORMAL_CHARGE>
0

>  <JCHEM_GHOSE_FILTER>
0

>  <JCHEM_IUPAC>
N-[3-(dimethylamino)propyl]-2-[4-(4-formamido-1-methyl-1H-pyrrole-2-amido)-1-methyl-1H-pyrrole-2-amido]-5-(propan-2-yl)-1,3-thiazole-4-carboxamide

>  <ALOGPS_LOGP>
2.41

>  <JCHEM_LOGP>
2.052411993666667

>  <ALOGPS_LOGS>
-3.80

>  <JCHEM_MDDR_LIKE_RULE>
1

>  <JCHEM_NEUTRAL_CHARGE>
1

>  <JCHEM_NUMBER_OF_RINGS>
3

>  <JCHEM_PHYSIOLOGICAL_CHARGE>
1

>  <JCHEM_PKA>
14.264883012691765

>  <JCHEM_PKA_STRONGEST_ACIDIC>
11.655930342363451

>  <JCHEM_PKA_STRONGEST_BASIC>
9.295965854390273

>  <JCHEM_POLAR_SURFACE_AREA>
142.39000000000001

>  <JCHEM_REFRACTIVITY>
151.78469999999993

>  <JCHEM_ROTATABLE_BOND_COUNT>
11

>  <JCHEM_RULE_OF_FIVE>
0

>  <ALOGPS_SOLUBILITY>
8.60e-02 g/l

>  <JCHEM_TRADITIONAL_IUPAC>
tetrahydrofolic acid

>  <JCHEM_VEBER_RULE>
0

>  <DRUGBANK_ID>
DB02295

>  <SECONDARY_ACCESSION_NUMBERS>
EXPT00474

>  <DRUG_GROUPS>
experimental

>  <GENERIC_NAME>
N-[3-(Dimethylamino)Propyl]-2-({[4-({[4-(Formylamino)-1-Methyl-1h-Pyrrol-2-Yl]Carbonyl}Amino)-1-Methyl-1h-Pyrrol-2-Yl]Carbonyl}Amino)-5-Isopropyl-1,3-Thiazole-4-Carboxamide

$$$$

 OpenBabel05042401512D

 41 45  0  0  0  0  0  0  0  0999 V2000
   -4.7534    3.5889    0.0000 C   0  0  0  0  0  0  0  0  0  0  0  0
   -4.3409    2.8744    0.0000 N   0  3  0  0  0  0  0  0  0  0  0  0
   -5.0554    2.4619    0.0000 C   0  0  0  0  0  0  0  0  0  0  0  0
   -3.6265    3.2869    0.0000 C   0  0  0  0  0  0  0  0  0  0  0  0
   -3.9284    2.1599    0.0000 C   0  0  0  0  0  0  0  0  0  0  0  0
   -3.1034    2.1599    0.0000 C   0  0  0  0  0  0  0  0  0  0  0  0
   -2.6909    1.4455    0.0000 C   0  0  0  0  0  0  0  0  0  0  0  0
   -3.1034    0.7310    0.0000 C   0  0  0  0  0  0  0  0  0  0  0  0
   -2.6909    0.0165    0.0000 C   0  0  0  0  0  0  0  0  0  0  0  0
   -1.8659    0.0165    0.0000 N   0  0  0  0  0  0  0  0  0  0  0  0
   -1.4534   -0.6979    0.0000 C   0  0  0  0  0  0  0  0  0  0  0  0
   -1.8659   -1.4124    0.0000 O   0  0  0  0  0  0  0  0  0  0  0  0
   -0.6284   -0.6979    0.0000 C   0  0  0  0  0  0  0  0  0  0  0  0
   -0.1435   -1.3654    0.0000 C   0  0  0  0  0  0  0  0  0  0  0  0
    0.6411   -1.1104    0.0000 C   0  0  0  0  0  0  0  0  0  0  0  0
    0.6411   -0.2854    0.0000 C   0  0  0  0  0  0  0  0  0  0  0  0
    1.3556    0.1271    0.0000 C   0  0  0  0  0  0  0  0  0  0  0  0
    2.0701   -0.2854    0.0000 C   0  0  0  0  0  0  0  0  0  0  0  0
    2.0701   -1.1104    0.0000 C   0  0  0  0  0  0  0  0  0  0  0  0
    2.7845   -1.5229    0.0000 O   0  0  0  0  0  0  0  0  0  0  0  0
    2.7845   -2.3479    0.0000 C   0  0  0  0  0  0  0  0  0  0  0  0
    2.0701   -2.7604    0.0000 C   0  0  0  0  0  0  0  0  0  0  0  0
    2.0701   -3.5854    0.0000 C   0  0  0  0  0  0  0  0  0  0  0  0
    1.3556   -3.9979    0.0000 C   0  0  0  0  0  0  0  0  0  0  0  0
    0.6411   -3.5854    0.0000 C   0  0  0  0  0  0  0  0  0  0  0  0
    0.6411   -2.7604    0.0000 C   0  0  0  0  0  0  0  0  0  0  0  0
    1.3556   -2.3479    0.0000 C   0  0  0  0  0  0  0  0  0  0  0  0
    1.3556   -1.5229    0.0000 C   0  0  0  0  0  0  0  0  0  0  0  0
   -0.1435   -0.0305    0.0000 N   0  0  0  0  0  0  0  0  0  0  0  0
   -0.3984    0.7541    0.0000 C   0  0  0  0  0  0  0  0  0  0  0  0
    0.1536    1.3672    0.0000 C   0  0  0  0  0  0  0  0  0  0  0  0
   -0.1014    2.1518    0.0000 C   0  0  0  0  0  0  0  0  0  0  0  0
    0.4507    2.7649    0.0000 C   0  0  0  0  0  0  0  0  0  0  0  0
    1.2577    2.5934    0.0000 C   0  0  0  0  0  0  0  0  0  0  0  0
    1.5126    1.8088    0.0000 C   0  0  0  0  0  0  0  0  0  0  0  0
    0.9606    1.1957    0.0000 C   0  0  0  0  0  0  0  0  0  0  0  0
    2.3196    1.6373    0.0000 C   0  0  0  0  0  0  0  0  0  0  0  0
    2.5745    0.8526    0.0000 N   0  0  0  0  0  0  0  0  0  0  0  0
    2.8716    2.2503    0.0000 N   0  0  0  0  0  0  0  0  0  0  0  0
   -3.9284    0.7310    0.0000 C   0  0  0  0  0  0  0  0  0  0  0  0
   -4.3409    1.4455    0.0000 C   0  0  0  0  0  0  0  0  0  0  0  0
  1  2  1  0  0  0  0
  2  3  1  0  0  0  0
  2  4  1  0  0  0  0
  2  5  1  0  0  0  0
  5  6  2  0  0  0  0
  5 41  1  0  0  0  0
  6  7  1  0  0  0  0
  7  8  2  0  0  0  0
  8  9  1  0  0  0  0
  8 40  1  0  0  0  0
  9 10  1  0  0  0  0
 10 11  1  0  0  0  0
 11 12  2  0  0  0  0
 11 13  1  0  0  0  0
 13 14  2  0  0  0  0
 13 29  1  0  0  0  0
 14 15  1  0  0  0  0
 15 16  2  0  0  0  0
 15 28  1  0  0  0  0
 16 17  1  0  0  0  0
 16 29  1  0  0  0  0
 17 18  2  0  0  0  0
 18 19  1  0  0  0  0
 19 20  1  0  0  0  0
 19 28  2  0  0  0  0
 20 21  1  0  0  0  0
 21 22  1  0  0  0  0
 22 23  2  0  0  0  0
 22 27  1  0  0  0  0
 23 24  1  0  0  0  0
 24 25  2  0  0  0  0
 25 26  1  0  0  0  0
 26 27  2  0  0  0  0
 29 30  1  0  0  0  0
 30 31  1  0  0  0  0
 31 32  2  0  0  0  0
 31 36  1  0  0  0  0
 32 33  1  0  0  0  0
 33 34  2  0  0  0  0
 34 35  1  0  0  0  0
 35 36  2  0  0  0  0
 35 37  1  0  0  0  0
 37 38  1  0  0  0  0
 37 39  2  0  0  0  0
 40 41  2  0  0  0  0
M  CHG  1   2   1
M  END
>  <DATABASE_ID>
DB02269

>  <DATABASE_NAME>
drugbank

>  <SMILES>
C[N+](C)(C)C1=CC=C(CNC(=O)C2=CC3=C(C=CC(OCC4=CC=CC=C4)=C3)N2CC2=CC=CC(=C2)C(N)=N)C=C1

>  <INCHI_IDENTIFIER>
InChI=1S/C34H35N5O2/c1-39(2,3)29-14-12-24(13-15-29)21-37-34(40)32-20-28-19-30(41-23-25-8-5-4-6-9-25)16-17-31(28)38(32)22-26-10-7-11-27(18-26)33(35)36/h4-20H,21-23H2,1-3H3,(H3-,35,36,37,40)/p+1

>  <INCHI_KEY>
UFKJQTGPBFWMGT-UHFFFAOYSA-O

>  <FORMULA>
C34H36N5O2

>  <MOLECULAR_WEIGHT>
546.6819

>  <EXACT_MASS>
546.286900421

>  <JCHEM_ACCEPTOR_COUNT>
4

>  <JCHEM_ATOM_COUNT>
77

>  <JCHEM_AVERAGE_NEUTRAL_MICROSPECIES_CHARGE>
1.999967593246227

>  <JCHEM_AVERAGE_POLARIZABILITY>
63.15990275360165

>  <JCHEM_BIOAVAILABILITY>
1

>  <JCHEM_DONOR_COUNT>
3

>  <JCHEM_FORMAL_CHARGE>
1

>  <JCHEM_GHOSE_FILTER>
0

>  <JCHEM_IUPAC>
4-({[5-(benzyloxy)-1-[(3-carbamimidoylphenyl)methyl]-1H-indol-2-yl]formamido}methyl)-N,N,N-trimethylanilinium

>  <ALOGPS_LOGP>
1.21

>  <JCHEM_LOGP>
1.2859221421949214

>  <ALOGPS_LOGS>
-6.46

>  <JCHEM_MDDR_LIKE_RULE>
1

>  <JCHEM_NEUTRAL_CHARGE>
2

>  <JCHEM_NUMBER_OF_RINGS>
5

>  <JCHEM_PHYSIOLOGICAL_CHARGE>
2

>  <JCHEM_PKA_STRONGEST_ACIDIC>
14.72210904296776

>  <JCHEM_PKA_STRONGEST_BASIC>
11.489563155855917

>  <JCHEM_POLAR_SURFACE_AREA>
93.13

>  <JCHEM_REFRACTIVITY>
187.48859999999996

>  <JCHEM_ROTATABLE_BOND_COUNT>
10

>  <JCHEM_RULE_OF_FIVE>
0

>  <ALOGPS_SOLUBILITY>
2.00e-04 g/l

>  <JCHEM_TRADITIONAL_IUPAC>
biotin

>  <JCHEM_VEBER_RULE>
0

>  <DRUGBANK_ID>
DB02269

>  <SECONDARY_ACCESSION_NUMBERS>
EXPT01864

>  <DRUG_GROUPS>
experimental

>  <GENERIC_NAME>
[4-({[5-Benzyloxy-1-(3-Carbamimidoyl-Benzyl)-1h-Indole-2-Carbonyl]-Amino}-Methyl)-Phenyl]-Trimethyl-Ammonium

$$$$
FLE
 OpenBabel05042401512D

 17 17  0  0  1  0  0  0  0  0999 V2000
    0.2206    0.5696    0.0000 N   0  0  0  0  0  0  0  0  0  0  0  0
   -0.4938    0.1571    0.0000 C   0  0  1  0  0  0  0  0  0  0  0  0
   -1.2083    0.5696    0.0000 C   0  0  0  0  0  0  0  0  0  0  0  0
   -1.9228    0.1571    0.0000 C   0  0  0  0  0  0  0  0  0  0  0  0
   -2.6372    0.5696    0.0000 C   0  0  0  0  0  0  0  0  0  0  0  0
   -1.9228   -0.6679    0.0000 C   0  0  0  0  0  0  0  0  0  0  0  0
   -0.4938   -0.6679    0.0000 C   0  0  0  0  0  0  0  0  0  0  0  0
   -1.2083   -1.0804    0.0000 O   0  0  0  0  0  0  0  0  0  0  0  0
    0.2206   -1.0804    0.0000 O   0  0  0  0  0  0  0  0  0  0  0  0
    0.9351    0.1571    0.0000 C   0  0  0  0  0  0  0  0  0  0  0  0
    0.9351   -0.6679    0.0000 O   0  0  0  0  0  0  0  0  0  0  0  0
    1.6496    0.5696    0.0000 C   0  0  0  0  0  0  0  0  0  0  0  0
    1.7358    1.3901    0.0000 O   0  0  0  0  0  0  0  0  0  0  0  0
    2.4033    0.2341    0.0000 C   0  0  0  0  0  0  0  0  0  0  0  0
    2.9553    0.8472    0.0000 C   0  0  0  0  0  0  0  0  0  0  0  0
    2.5428    1.5616    0.0000 C   0  0  0  0  0  0  0  0  0  0  0  0
   -0.4938    0.7410    0.0000 H   0  0  0  0  0  0  0  0  0  0  0  0
  1 10  1  0  0  0  0
  2  1  1  0  0  0  0
  2  3  1  0  0  0  0
  2  7  1  0  0  0  0
  2 17  1  1  0  0  0
  3  4  1  0  0  0  0
  4  5  1  0  0  0  0
  4  6  1  0  0  0  0
  7  8  1  0  0  0  0
  7  9  2  0  0  0  0
 10 11  2  0  0  0  0
 10 12  1  0  0  0  0
 12 13  1  0  0  0  0
 12 14  2  0  0  0  0
 13 16  1  0  0  0  0
 14 15  1  0  0  0  0
 15 16  2  0  0  0  0
M  END
>  <DATABASE_ID>
DB02215

>  <DATABASE_NAME>
drugbank

>  <SMILES>
[H][C@@](CC(C)C)(NC(=O)C1=CC=CO1)C(O)=O

>  <INCHI_IDENTIFIER>
InChI=1S/C11H15NO4/c1-7(2)6-8(11(14)15)12-10(13)9-4-3-5-16-9/h3-5,7-8H,6H2,1-2H3,(H,12,13)(H,14,15)/t8-/m0/s1

>  <INCHI_KEY>
LXBURZIESWDWIV-QMMMGPOBSA-N

>  <FORMULA>
C11H15NO4

>  <MOLECULAR_WEIGHT>
225.2411

>  <EXACT_MASS>
225.100107973

>  <JCHEM_ACCEPTOR_COUNT>
3

>  <JCHEM_ATOM_COUNT>
31

>  <JCHEM_AVERAGE_NEUTRAL_MICROSPECIES_CHARGE>
-0.9992121641079805

>  <JCHEM_AVERAGE_POLARIZABILITY>
23.156507938261072

>  <JCHEM_BIOAVAILABILITY>
1

>  <JCHEM_DONOR_COUNT>
2

>  <JCHEM_FORMAL_CHARGE>
0

>  <JCHEM_GHOSE_FILTER>
1

>  <JCHEM_IUPAC>
(2S)-2-[(furan-2-yl)formamido]-4-methylpentanoic acid

>  <ALOGPS_LOGP>
1.50

>  <JCHEM_LOGP>
1.4086665269999998

>  <ALOGPS_LOGS>
-2.85

>  <JCHEM_MDDR_LIKE_RULE>
0

>  <JCHEM_NEUTRAL_CHARGE>
-1

>  <JCHEM_NUMBER_OF_RINGS>
1

>  <JCHEM_PHYSIOLOGICAL_CHARGE>
-1

>  <JCHEM_PKA>
14.208255668170775

>  <JCHEM_PKA_STRONGEST_ACIDIC>
3.896812209010068

>  <JCHEM_PKA_STRONGEST_BASIC>
-2.909752055618493

>  <JCHEM_POLAR_SURFACE_AREA>
79.54

>  <JCHEM_REFRACTIVITY>
56.676100000000005

>  <JCHEM_ROTATABLE_BOND_COUNT>
5

>  <JCHEM_RULE_OF_FIVE>
1

>  <ALOGPS_SOLUBILITY>
3.20e-01 g/l

>  <JCHEM_TRADITIONAL_IUPAC>
biotin

>  <JCHEM_VEBER_RULE>
0

>  <DRUGBANK_ID>
DB02215

>  <SECONDARY_ACCESSION_NUMBERS>
EXPT01441

>  <DRUG_GROUPS>
experimental

>  <GENERIC_NAME>
Furoyl-Leucine

$$$$
S80
 OpenBabel05042401512D

 32 32  0  0  1  0  0  0  0  0999 V2000
    1.6751   -0.9662    0.0000 C   0  0  0  0  0  0  0  0  0  0  0  0
    1.9765   -0.1982    0.0000 O   0  0  0  0  0  0  0  0  0  0  0  0
    2.2362   -1.5710    0.0000 N   0  0  0  0  0  0  0  0  0  0  0  0
    2.1133   -2.3868    0.0000 C   0  0  0  0  0  0  0  0  0  0  0  0
    1.3988   -2.7993    0.0000 C   0  0  0  0  0  0  0  0  0  0  0  0
    0.6308   -2.4978    0.0000 C   0  0  0  0  0  0  0  0  0  0  0  0
    0.3876   -1.7095    0.0000 C   0  0  0  0  0  0  0  0  0  0  0  0
    0.8524   -1.0279    0.0000 C   0  0  2  0  0  0  0  0  0  0  0  0
    0.4399   -0.3134    0.0000 N   0  0  0  0  0  0  0  0  0  0  0  0
   -0.3851   -0.3134    0.0000 C   0  0  0  0  0  0  0  0  0  0  0  0
   -0.7976    0.4011    0.0000 C   0  0  0  0  0  0  0  0  0  0  0  0
   -1.6226    0.4011    0.0000 C   0  0  0  0  0  0  0  0  0  0  0  0
   -2.0351   -0.3134    0.0000 C   0  0  0  0  0  0  0  0  0  0  0  0
   -2.8601   -0.3134    0.0000 O   0  0  0  0  0  0  0  0  0  0  0  0
   -1.6226   -1.0279    0.0000 N   0  0  0  0  0  0  0  0  0  0  0  0
   -2.0351   -1.7423    0.0000 O   0  0  0  0  0  0  0  0  0  0  0  0
   -2.0351    1.1156    0.0000 C   0  0  0  0  0  0  0  0  0  0  0  0
   -2.8601    1.1156    0.0000 C   0  0  0  0  0  0  0  0  0  0  0  0
   -3.2726    1.8300    0.0000 C   0  0  0  0  0  0  0  0  0  0  0  0
   -4.0976    1.8300    0.0000 O   0  0  0  0  0  0  0  0  0  0  0  0
   -0.3851    1.1156    0.0000 C   0  0  0  0  0  0  0  0  0  0  0  0
   -0.7976    1.8300    0.0000 C   0  0  0  0  0  0  0  0  0  0  0  0
   -1.6226    1.8300    0.0000 C   0  0  0  0  0  0  0  0  0  0  0  0
   -0.3851    2.5445    0.0000 C   0  0  0  0  0  0  0  0  0  0  0  0
   -0.7976   -1.0279    0.0000 O   0  0  0  0  0  0  0  0  0  0  0  0
    3.0246   -1.3278    0.0000 C   0  0  0  0  0  0  0  0  0  0  0  0
    3.2081   -0.5235    0.0000 C   0  0  0  0  0  0  0  0  0  0  0  0
    3.9965   -0.2803    0.0000 O   0  0  0  0  0  0  0  0  0  0  0  0
    4.1801    0.5240    0.0000 C   0  0  0  0  0  0  0  0  0  0  0  0
    1.1252   -0.5116    0.0000 H   0  0  0  0  0  0  0  0  0  0  0  0
   -0.8990   -0.1740    0.0000 H   0  0  0  0  0  0  0  0  0  0  0  0
   -1.5212   -0.1740    0.0000 H   0  0  0  0  0  0  0  0  0  0  0  0
  1  2  2  0  0  0  0
  1  3  1  0  0  0  0
  1  8  1  0  0  0  0
  3  4  1  0  0  0  0
  3 26  1  0  0  0  0
  4  5  1  0  0  0  0
  5  6  1  0  0  0  0
  6  7  1  0  0  0  0
  7  8  1  0  0  0  0
  8  9  1  0  0  0  0
  8 30  1  1  0  0  0
  9 10  1  0  0  0  0
 10 11  1  0  0  0  0
 10 25  2  0  0  0  0
 11 12  1  0  0  0  0
 11 21  1  0  0  0  0
 11 31  1  0  0  0  0
 12 13  1  0  0  0  0
 12 17  1  0  0  0  0
 12 32  1  0  0  0  0
 13 14  2  0  0  0  0
 13 15  1  0  0  0  0
 15 16  1  0  0  0  0
 17 18  1  0  0  0  0
 18 19  1  0  0  0  0
 19 20  1  0  0  0  0
 21 22  1  0  0  0  0
 22 23  1  0  0  0  0
 22 24  1  0  0  0  0
 26 27  1  0  0  0  0
 27 28  1  0  0  0  0
 28 29  1  0  0  0  0
M  END
>  <DATABASE_ID>
DB02090

>  <DATABASE_NAME>
drugbank

>  <SMILES>
[H][C@@](CCCO)(C(=O)NO)[C@@]([H])(CC(C)C)C(=O)N[C@@]1([H])CCCCN(CCOC)C1=O

>  <INCHI_IDENTIFIER>
InChI=1S/C20H37N3O6/c1-14(2)13-16(15(7-6-11-24)19(26)22-28)18(25)21-17-8-4-5-9-23(20(17)27)10-12-29-3/h14-17,24,28H,4-13H2,1-3H3,(H,21,25)(H,22,26)/t15-,16+,17-/m0/s1

>  <INCHI_KEY>
JLEGVELHGVWFGG-BBWFWOEESA-N

>  <FORMULA>
C20H37N3O6

>  <MOLECULAR_WEIGHT>
415.5243

>  <EXACT_MASS>
415.268235931

>  <JCHEM_ACCEPTOR_COUNT>
6

>  <JCHEM_ATOM_COUNT>
66

>  <JCHEM_AVERAGE_NEUTRAL_MICROSPECIES_CHARGE>
-0.01347299303548097

>  <JCHEM_AVERAGE_POLARIZABILITY>
44.53057508050691

>  <JCHEM_BIOAVAILABILITY>
1

>  <JCHEM_DONOR_COUNT>
4

>  <JCHEM_FORMAL_CHARGE>
0

>  <JCHEM_GHOSE_FILTER>
1

>  <JCHEM_IUPAC>
(2S,3R)-N-hydroxy-2-(3-hydroxypropyl)-N'-[(3S)-1-(2-methoxyethyl)-2-oxoazepan-3-yl]-3-(2-methylpropyl)butanediamide

>  <ALOGPS_LOGP>
0.76

>  <JCHEM_LOGP>
0.05645357699999912

>  <ALOGPS_LOGS>
-1.96

>  <JCHEM_MDDR_LIKE_RULE>
0

>  <JCHEM_NEUTRAL_CHARGE>
0

>  <JCHEM_NUMBER_OF_RINGS>
1

>  <JCHEM_PHYSIOLOGICAL_CHARGE>
0

>  <JCHEM_PKA>
12.874352500123862

>  <JCHEM_PKA_STRONGEST_ACIDIC>
8.864687150952049

>  <JCHEM_PKA_STRONGEST_BASIC>
-0.38970036650734274

>  <JCHEM_POLAR_SURFACE_AREA>
128.2

>  <JCHEM_REFRACTIVITY>
108.50399999999999

>  <JCHEM_ROTATABLE_BOND_COUNT>
12

>  <JCHEM_RULE_OF_FIVE>
1

>  <ALOGPS_SOLUBILITY>
4.58e+00 g/l

>  <JCHEM_TRADITIONAL_IUPAC>
biotin

>  <JCHEM_VEBER_RULE>
0

>  <DRUGBANK_ID>
DB02090

>  <SECONDARY_ACCESSION_NUMBERS>
EXPT02835

>  <DRUG_GROUPS>
experimental

>  <GENERIC_NAME>
A Disubstituted Succinyl Caprolactam Hydroxymate Mmp3inhibitor

$$$$

 OpenBabel05042401512D

 23 24  0  0  1  0  0  0  0  0999 V2000
   -0.3573   -0.4125    0.0000 O   0  0  0  0  0  0  0  0  0  0  0  0
    0.3571   -0.8250    0.0000 C   0  0  2  0  0  0  0  0  0  0  0  0
    0.3571   -1.6500    0.0000 C   0  0  1  0  0  0  0  0  0  0  0  0
   -0.3573   -2.0625    0.0000 C   0  0  2  0  0  0  0  0  0  0  0  0
   -1.0718   -0.8250    0.0000 C   0  0  1  0  0  0  0  0  0  0  0  0
   -1.0718   -1.6500    0.0000 C   0  0  1  0  0  0  0  0  0  0  0  0
    1.0716    2.0624    0.0000 C   0  0  3  0  0  0  0  0  0  0  0  0
    1.7861    1.6499    0.0000 C   0  0  1  0  0  0  0  0  0  0  0  0
    0.3571    1.6499    0.0000 O   0  0  0  0  0  0  0  0  0  0  0  0
    1.7861    0.8248    0.0000 C   0  0  2  0  0  0  0  0  0  0  0  0
    0.3571    0.8248    0.0000 C   0  0  1  0  0  0  0  0  0  0  0  0
    1.0716    0.4124    0.0000 C   0  0  1  0  0  0  0  0  0  0  0  0
    1.0716    2.8874    0.0000 O   0  0  0  0  0  0  0  0  0  0  0  0
    2.5005    2.0624    0.0000 O   0  0  0  0  0  0  0  0  0  0  0  0
    2.5005    0.4124    0.0000 O   0  0  0  0  0  0  0  0  0  0  0  0
    1.0716   -0.4125    0.0000 O   0  0  0  0  0  0  0  0  0  0  0  0
   -0.3573    0.4125    0.0000 C   0  0  0  0  0  0  0  0  0  0  0  0
   -1.0716    0.8250    0.0000 O   0  0  0  0  0  0  0  0  0  0  0  0
    1.0716   -2.0625    0.0000 O   0  0  0  0  0  0  0  0  0  0  0  0
   -0.3573   -2.8874    0.0000 O   0  0  0  0  0  0  0  0  0  0  0  0
   -1.7862   -2.0624    0.0000 O   0  0  0  0  0  0  0  0  0  0  0  0
   -1.7862   -0.4125    0.0000 C   0  0  0  0  0  0  0  0  0  0  0  0
   -2.5006   -0.8248    0.0000 O   0  0  0  0  0  0  0  0  0  0  0  0
  1  5  1  0  0  0  0
  2  1  1  0  0  0  0
  2 16  1  1  0  0  0
  2  3  1  0  0  0  0
  3 19  1  6  0  0  0
  3  4  1  0  0  0  0
  4 20  1  1  0  0  0
  4  6  1  0  0  0  0
  5 22  1  1  0  0  0
  5  6  1  0  0  0  0
  6 21  1  6  0  0  0
  7  8  1  0  0  0  0
  7  9  1  0  0  0  0
  7 13  1  0  0  0  0
  8 10  1  0  0  0  0
  8 14  1  6  0  0  0
  9 11  1  0  0  0  0
 10 12  1  0  0  0  0
 10 15  1  1  0  0  0
 11 12  1  0  0  0  0
 11 17  1  1  0  0  0
 12 16  1  6  0  0  0
 18 17  1  0  0  0  0
 22 23  1  0  0  0  0
M  END
>  <DATABASE_ID>
DB02061

>  <DATABASE_NAME>
drugbank

>  <SMILES>
OC[C@H]1O[C@@H](O[C@H]2[C@H](O)[C@@H](O)C(O)O[C@@H]2CO)[C@H](O)[C@@H](O)[C@@H]1O

>  <INCHI_IDENTIFIER>
InChI=1S/C12H22O11/c13-1-3-5(15)6(16)9(19)12(22-3)23-10-4(2-14)21-11(20)8(18)7(10)17/h3-20H,1-2H2/t3-,4-,5-,6+,7-,8-,9-,10-,11?,12+/m1/s1

>  <INCHI_KEY>
GUBGYTABKSRVRQ-CUHNMECISA-N

>  <FORMULA>
C12H22O11

>  <MOLECULAR_WEIGHT>
342.297

>  <EXACT_MASS>
342.116211528

>  <JCHEM_ACCEPTOR_COUNT>
11

>  <JCHEM_ATOM_COUNT>
45

>  <JCHEM_AVERAGE_POLARIZABILITY>
31.275057751022988

>  <JCHEM_BIOAVAILABILITY>
0

>  <JCHEM_DONOR_COUNT>
8

>  <JCHEM_FORMAL_CHARGE>
0

>  <JCHEM_GHOSE_FILTER>
0

>  <JCHEM_IUPAC>
(2R,3S,4S,5R,6S)-2-(hydroxymethyl)-6-{[(2R,3S,4R,5R)-4,5,6-trihydroxy-2-(hydroxymethyl)oxan-3-yl]oxy}oxane-3,4,5-triol

>  <ALOGPS_LOGP>
-3.01

>  <JCHEM_LOGP>
-4.703374863666666

>  <ALOGPS_LOGS>
0.23

>  <JCHEM_MDDR_LIKE_RULE>
0

>  <JCHEM_NUMBER_OF_RINGS>
2

>  <JCHEM_PHYSIOLOGICAL_CHARGE>
0

>  <JCHEM_PKA>
12.17368931723461

>  <JCHEM_PKA_STRONGEST_ACIDIC>
11.254374125721942

>  <JCHEM_PKA_STRONGEST_BASIC>
-2.9810835652988272

>  <JCHEM_POLAR_SURFACE_AREA>
189.52999999999997

>  <JCHEM_REFRACTIVITY>
68.3367

>  <JCHEM_ROTATABLE_BOND_COUNT>
4

>  <JCHEM_RULE_OF_FIVE>
0

>  <ALOGPS_SOLUBILITY>
5.86e+02 g/l

>  <JCHEM_TRADITIONAL_IUPAC>
D-cellobiose

>  <JCHEM_VEBER_RULE>
0

>  <DRUGBANK_ID>
DB02061

>  <SECONDARY_ACCESSION_NUMBERS>
EXPT00844

>  <DRUG_GROUPS>
experimental

>  <GENERIC_NAME>
Cellobiose

>  <SYNONYMS>
1-beta-D-Glucopyranosyl-4-D-glucopyranose; 4-beta-d-glucopyranosyl-d-glucopyranose; 4-o-beta-d-glucopyranosyl-d-glucose; 4-O-β-D-glucopyranosyl-D-glucopyranose; 4-β-D-glucopyranosyl-D-glucopyranose; Cellose; D-(+)-cellobiose; D-cellobiose; D-glucosyl-β-(1-4)-D-glucose

$$$$
FLX
 OpenBabel05042401512D

 33 35  0  0  1  0  0  0  0  0999 V2000
   -0.6134    2.1483    0.0000 N   0  0  0  0  0  0  0  0  0  0  0  0
   -1.3278    2.5608    0.0000 C   0  0  0  0  0  0  0  0  0  0  0  0
   -2.0423    2.1483    0.0000 O   0  0  0  0  0  0  0  0  0  0  0  0
   -1.3278    3.3858    0.0000 C   0  0  0  0  0  0  0  0  0  0  0  0
   -1.9953    3.8707    0.0000 O   0  0  0  0  0  0  0  0  0  0  0  0
   -0.6604    3.8707    0.0000 C   0  0  0  0  0  0  0  0  0  0  0  0
   -0.9153    4.6553    0.0000 C   0  0  0  0  0  0  0  0  0  0  0  0
   -1.7403    4.6553    0.0000 C   0  0  0  0  0  0  0  0  0  0  0  0
   -0.6134    1.3233    0.0000 C   0  0  1  0  0  0  0  0  0  0  0  0
   -1.3278    0.9108    0.0000 C   0  0  0  0  0  0  0  0  0  0  0  0
   -1.3278    0.0858    0.0000 C   0  0  0  0  0  0  0  0  0  0  0  0
   -2.0423   -0.3267    0.0000 C   0  0  0  0  0  0  0  0  0  0  0  0
   -0.6134   -0.3267    0.0000 C   0  0  0  0  0  0  0  0  0  0  0  0
    0.1011    0.9108    0.0000 C   0  0  0  0  0  0  0  0  0  0  0  0
    0.8156    1.3233    0.0000 O   0  0  0  0  0  0  0  0  0  0  0  0
    0.1011    0.0858    0.0000 N   0  0  0  0  0  0  0  0  0  0  0  0
    0.8156   -0.3267    0.0000 C   0  0  1  0  0  0  0  0  0  0  0  0
    0.8156   -1.1517    0.0000 C   0  0  0  0  0  0  0  0  0  0  0  0
    1.5300   -1.5642    0.0000 C   0  0  0  0  0  0  0  0  0  0  0  0
    1.6163   -2.3847    0.0000 C   0  0  0  0  0  0  0  0  0  0  0  0
    2.4233   -2.5562    0.0000 C   0  0  0  0  0  0  0  0  0  0  0  0
    1.0643   -2.9978    0.0000 C   0  0  0  0  0  0  0  0  0  0  0  0
    2.2837   -1.2287    0.0000 C   0  0  0  0  0  0  0  0  0  0  0  0
    2.8358   -1.8418    0.0000 N   0  0  0  0  0  0  0  0  0  0  0  0
    2.6782   -3.3409    0.0000 C   0  0  0  0  0  0  0  0  0  0  0  0
    1.3192   -3.7824    0.0000 C   0  0  0  0  0  0  0  0  0  0  0  0
    2.1262   -3.9540    0.0000 C   0  0  0  0  0  0  0  0  0  0  0  0
    1.5300    0.0858    0.0000 P   0  0  0  0  0  0  0  0  0  0  0  0
    1.9425   -0.6287    0.0000 O   0  0  0  0  0  0  0  0  0  0  0  0
    1.1175    0.8002    0.0000 O   0  0  0  0  0  0  0  0  0  0  0  0
    2.2445    0.4983    0.0000 O   0  0  0  0  0  0  0  0  0  0  0  0
   -1.1191    1.6152    0.0000 H   0  0  0  0  0  0  0  0  0  0  0  0
    0.3099   -0.6187    0.0000 H   0  0  0  0  0  0  0  0  0  0  0  0
  1  2  1  0  0  0  0
  2  3  2  0  0  0  0
  2  4  1  0  0  0  0
  4  5  1  0  0  0  0
  4  6  2  0  0  0  0
  5  8  1  0  0  0  0
  6  7  1  0  0  0  0
  7  8  2  0  0  0  0
  9  1  1  0  0  0  0
  9 10  1  0  0  0  0
  9 14  1  0  0  0  0
  9 32  1  1  0  0  0
 10 11  1  0  0  0  0
 11 12  1  0  0  0  0
 11 13  1  0  0  0  0
 14 15  2  0  0  0  0
 14 16  1  0  0  0  0
 17 16  1  0  0  0  0
 17 18  1  0  0  0  0
 17 28  1  0  0  0  0
 17 33  1  1  0  0  0
 18 19  1  0  0  0  0
 19 20  1  0  0  0  0
 19 23  2  0  0  0  0
 20 21  2  0  0  0  0
 20 22  1  0  0  0  0
 21 24  1  0  0  0  0
 21 25  1  0  0  0  0
 22 26  2  0  0  0  0
 23 24  1  0  0  0  0
 25 27  2  0  0  0  0
 26 27  1  0  0  0  0
 28 29  2  0  0  0  0
 28 30  1  0  0  0  0
 28 31  1  0  0  0  0
M  END
>  <DATABASE_ID>
DB02046

>  <DATABASE_NAME>
drugbank

>  <SMILES>
[H][C@@](CC(C)C)(NC(=O)C1=CC=CO1)C(=O)N[C@@]([H])(CC1=CNC2=C1C=CC=C2)P(O)(O)=O

>  <INCHI_IDENTIFIER>
InChI=1S/C21H26N3O6P/c1-13(2)10-17(23-21(26)18-8-5-9-30-18)20(25)24-19(31(27,28)29)11-14-12-22-16-7-4-3-6-15(14)16/h3-9,12-13,17,19,22H,10-11H2,1-2H3,(H,23,26)(H,24,25)(H2,27,28,29)/t17-,19+/m0/s1

>  <INCHI_KEY>
WHPKSASOSKNDPY-PKOBYXMFSA-N

>  <FORMULA>
C21H26N3O6P

>  <MOLECULAR_WEIGHT>
447.4214

>  <EXACT_MASS>
447.155922091

>  <JCHEM_ACCEPTOR_COUNT>
5

>  <JCHEM_ATOM_COUNT>
57

>  <JCHEM_AVERAGE_NEUTRAL_MICROSPECIES_CHARGE>
-1.1585036963769575

>  <JCHEM_AVERAGE_POLARIZABILITY>
44.021597948401684

>  <JCHEM_BIOAVAILABILITY>
1

>  <JCHEM_DONOR_COUNT>
5

>  <JCHEM_FORMAL_CHARGE>
0

>  <JCHEM_GHOSE_FILTER>
1

>  <JCHEM_IUPAC>
[(1R)-1-[(2S)-2-[(furan-2-yl)formamido]-4-methylpentanamido]-2-(1H-indol-3-yl)ethyl]phosphonic acid

>  <ALOGPS_LOGP>
1.57

>  <JCHEM_LOGP>
1.6397288013333329

>  <ALOGPS_LOGS>
-3.81

>  <JCHEM_MDDR_LIKE_RULE>
1

>  <JCHEM_NEUTRAL_CHARGE>
-1

>  <JCHEM_NUMBER_OF_RINGS>
3

>  <JCHEM_PHYSIOLOGICAL_CHARGE>
-1

>  <JCHEM_PKA>
8.026016036130875

>  <JCHEM_PKA_STRONGEST_ACIDIC>
1.4929239300348436

>  <JCHEM_PKA_STRONGEST_BASIC>
-2.89835352190524

>  <JCHEM_POLAR_SURFACE_AREA>
144.66

>  <JCHEM_REFRACTIVITY>
114.37089999999999

>  <JCHEM_ROTATABLE_BOND_COUNT>
9

>  <JCHEM_RULE_OF_FIVE>
1

>  <ALOGPS_SOLUBILITY>
6.88e-02 g/l

>  <JCHEM_TRADITIONAL_IUPAC>
biotin

>  <JCHEM_VEBER_RULE>
0

>  <DRUGBANK_ID>
DB02046

>  <SECONDARY_ACCESSION_NUMBERS>
EXPT01449

>  <DRUG_GROUPS>
experimental

>  <GENERIC_NAME>
N-[(Furan-2-Yl)Carbonyl]-(S)-Leucyl-(R)-[1-Amino-2(1h-Indol-3-Yl)Ethyl]-Phosphonic Acid

$$$$

 OpenBabel05042401512D

 48 50  0  0  1  0  0  0  0  0999 V2000
   12.6750   -8.3538    0.0000 N   0  0  0  0  0  0  0  0  0  0  0  0
   12.3338   -9.7864    0.0000 C   0  0  2  0  0  0  0  0  0  0  0  0
   11.2348   -8.3538    0.0000 C   0  0  0  0  0  0  0  0  0  0  0  0
   12.6787   -7.5239    0.0000 C   0  0  0  0  0  0  0  0  0  0  0  0
   11.6518   -9.2937    0.0000 O   0  0  0  0  0  0  0  0  0  0  0  0
   12.0838  -10.5633    0.0000 C   0  0  1  0  0  0  0  0  0  0  0  0
   11.2348   -7.5239    0.0000 C   0  0  0  0  0  0  0  0  0  0  0  0
   10.5110   -8.7782    0.0000 N   0  0  0  0  0  0  0  0  0  0  0  0
   11.9587   -7.1032    0.0000 N   0  0  0  0  0  0  0  0  0  0  0  0
   10.9809   -9.7750    0.0000 C   0  0  1  0  0  0  0  0  0  0  0  0
   11.2424  -10.5633    0.0000 C   0  0  1  0  0  0  0  0  0  0  0  0
   12.5235  -11.1359    0.0000 O   0  0  0  0  0  0  0  0  0  0  0  0
   10.5110   -7.1108    0.0000 C   0  0  0  0  0  0  0  0  0  0  0  0
    9.7984   -8.3538    0.0000 C   0  0  0  0  0  0  0  0  0  0  0  0
   10.2116   -9.5324    0.0000 C   0  0  0  0  0  0  0  0  0  0  0  0
   10.8218  -11.1545    0.0000 O   0  0  0  0  0  0  0  0  0  0  0  0
    9.7984   -7.5239    0.0000 N   0  0  0  0  0  0  0  0  0  0  0  0
   10.5110   -6.3299    0.0000 N   0  0  0  0  0  0  0  0  0  0  0  0
    9.1275  -10.1121    0.0000 O   0  0  0  0  0  0  0  0  0  0  0  0
    9.9463  -11.1469    0.0000 P   0  0  0  0  0  0  0  0  0  0  0  0
    7.7673  -10.0819    0.0000 P   0  0  3  0  0  0  0  0  0  0  0  0
    9.9616  -10.3171    0.0000 O   0  0  0  0  0  0  0  0  0  0  0  0
    9.1844  -11.1206    0.0000 O   0  0  0  0  0  0  0  0  0  0  0  0
    9.9840  -11.9769    0.0000 O   0  0  0  0  0  0  0  0  0  0  0  0
    7.7673  -11.8706    0.0000 O   0  0  0  0  0  0  0  0  0  0  0  0
    7.7748   -9.2029    0.0000 O   0  0  0  0  0  0  0  0  0  0  0  0
    6.9863  -10.1121    0.0000 O   0  0  0  0  0  0  0  0  0  0  0  0
    7.7709  -13.5985    0.0000 P   0  0  3  0  0  0  0  0  0  0  0  0
    8.6313  -13.5796    0.0000 O   0  0  0  0  0  0  0  0  0  0  0  0
    7.8049  -14.5724    0.0000 O   0  0  0  0  0  0  0  0  0  0  0  0
    6.9448  -13.5833    0.0000 O   0  0  0  0  0  0  0  0  0  0  0  0
    9.3399  -13.1702    0.0000 C   0  0  0  0  0  0  0  0  0  0  0  0
   10.0562  -13.5796    0.0000 C   0  0  0  0  0  0  0  0  0  0  0  0
   10.7687  -13.1702    0.0000 C   0  0  2  0  0  0  0  0  0  0  0  0
   10.0448  -14.3147    0.0000 C   0  0  0  0  0  0  0  0  0  0  0  0
   10.0373  -12.7759    0.0000 C   0  0  0  0  0  0  0  0  0  0  0  0
   11.4850  -13.5796    0.0000 C   0  0  0  0  0  0  0  0  0  0  0  0
   10.7687  -12.3440    0.0000 O   0  0  0  0  0  0  0  0  0  0  0  0
   12.1974  -13.1702    0.0000 N   0  0  0  0  0  0  0  0  0  0  0  0
   11.4850  -14.3605    0.0000 O   0  0  0  0  0  0  0  0  0  0  0  0
   12.9099  -13.5796    0.0000 C   0  0  0  0  0  0  0  0  0  0  0  0
   13.6262  -13.1702    0.0000 C   0  0  0  0  0  0  0  0  0  0  0  0
   14.3387  -13.5796    0.0000 C   0  0  0  0  0  0  0  0  0  0  0  0
   15.0512  -13.1702    0.0000 N   0  0  0  0  0  0  0  0  0  0  0  0
   14.3387  -14.4057    0.0000 O   0  0  0  0  0  0  0  0  0  0  0  0
   15.7675  -13.5796    0.0000 C   0  0  0  0  0  0  0  0  0  0  0  0
   16.4799  -13.1665    0.0000 C   0  0  0  0  0  0  0  0  0  0  0  0
   17.1923  -13.5796    0.0000 S   0  0  0  0  0  0  0  0  0  0  0  0
  1  3  1  0  0  0  0
  1  4  1  0  0  0  0
  2  1  1  1  0  0  0
  2  5  1  0  0  0  0
  2  6  1  0  0  0  0
  3  7  2  0  0  0  0
  3  8  1  0  0  0  0
  4  9  2  0  0  0  0
  5 10  1  0  0  0  0
  6 11  1  0  0  0  0
  6 12  1  6  0  0  0
  7 13  1  0  0  0  0
  7  9  1  0  0  0  0
  8 14  2  0  0  0  0
 10 15  1  1  0  0  0
 10 11  1  0  0  0  0
 11 16  1  6  0  0  0
 13 17  2  0  0  0  0
 13 18  1  0  0  0  0
 14 17  1  0  0  0  0
 15 19  1  0  0  0  0
 16 20  1  0  0  0  0
 19 21  1  0  0  0  0
 20 22  1  0  0  0  0
 20 23  1  0  0  0  0
 20 24  2  0  0  0  0
 21 25  1  0  0  0  0
 21 26  1  0  0  0  0
 21 27  2  0  0  0  0
 25 28  1  0  0  0  0
 28 29  1  0  0  0  0
 28 30  1  0  0  0  0
 28 31  2  0  0  0  0
 29 32  1  0  0  0  0
 32 33  1  0  0  0  0
 33 35  1  0  0  0  0
 33 36  1  0  0  0  0
 34 33  1  1  0  0  0
 34 37  1  0  0  0  0
 34 38  1  0  0  0  0
 37 39  1  0  0  0  0
 37 40  2  0  0  0  0
 39 41  1  0  0  0  0
 41 42  1  0  0  0  0
 42 43  1  0  0  0  0
 43 44  1  0  0  0  0
 43 45  2  0  0  0  0
 44 46  1  0  0  0  0
 46 47  1  0  0  0  0
 47 48  1  0  0  0  0
M  END
>  <DATABASE_ID>
DB01992

>  <DATABASE_NAME>
drugbank

>  <SMILES>
CC(C)(COP(O)(=O)OP(O)(=O)OC[C@H]1O[C@H]([C@H](O)[C@@H]1OP(O)(O)=O)N1C=NC2=C1N=CN=C2N)[C@@H](O)C(=O)NCCC(=O)NCCS

>  <INCHI_IDENTIFIER>
InChI=1S/C21H36N7O16P3S/c1-21(2,16(31)19(32)24-4-3-12(29)23-5-6-48)8-41-47(38,39)44-46(36,37)40-7-11-15(43-45(33,34)35)14(30)20(42-11)28-10-27-13-17(22)25-9-26-18(13)28/h9-11,14-16,20,30-31,48H,3-8H2,1-2H3,(H,23,29)(H,24,32)(H,36,37)(H,38,39)(H2,22,25,26)(H2,33,34,35)/t11-,14-,15-,16+,20-/m1/s1

>  <INCHI_KEY>
RGJOEKWQDUBAIZ-IBOSZNHHSA-N

>  <FORMULA>
C21H36N7O16P3S

>  <MOLECULAR_WEIGHT>
767.534

>  <EXACT_MASS>
767.115208365

>  <JCHEM_ACCEPTOR_COUNT>
16

>  <JCHEM_ATOM_COUNT>
84

>  <JCHEM_AVERAGE_NEUTRAL_MICROSPECIES_CHARGE>
-3.9560344732451553

>  <JCHEM_AVERAGE_POLARIZABILITY>
66.0794773227341

>  <JCHEM_BIOAVAILABILITY>
0

>  <JCHEM_DONOR_COUNT>
10

>  <JCHEM_FORMAL_CHARGE>
0

>  <JCHEM_GHOSE_FILTER>
0

>  <JCHEM_IUPAC>
{[(2R,3S,4R,5R)-5-(6-amino-9H-purin-9-yl)-4-hydroxy-2-({[hydroxy({hydroxy[(3R)-3-hydroxy-2,2-dimethyl-3-({2-[(2-sulfanylethyl)carbamoyl]ethyl}carbamoyl)propoxy]phosphoryl}oxy)phosphoryl]oxy}methyl)oxolan-3-yl]oxy}phosphonic acid

>  <ALOGPS_LOGP>
-0.61

>  <JCHEM_LOGP>
-5.906345024107867

>  <ALOGPS_LOGS>
-2.22

>  <JCHEM_MDDR_LIKE_RULE>
1

>  <JCHEM_NEUTRAL_CHARGE>
-4

>  <JCHEM_NUMBER_OF_RINGS>
3

>  <JCHEM_PHYSIOLOGICAL_CHARGE>
-4

>  <JCHEM_PKA>
0.9219272969273867

>  <JCHEM_PKA_STRONGEST_ACIDIC>
0.8257565643203355

>  <JCHEM_PKA_STRONGEST_BASIC>
4.88705067749789

>  <JCHEM_POLAR_SURFACE_AREA>
346.5599999999999

>  <JCHEM_REFRACTIVITY>
162.7402

>  <JCHEM_ROTATABLE_BOND_COUNT>
18

>  <JCHEM_RULE_OF_FIVE>
0

>  <ALOGPS_SOLUBILITY>
4.64e+00 g/l

>  <JCHEM_TRADITIONAL_IUPAC>
tetrahydrofolic acid

>  <JCHEM_VEBER_RULE>
0

>  <DRUGBANK_ID>
DB01992

>  <SECONDARY_ACCESSION_NUMBERS>
EXPT00991

>  <DRUG_GROUPS>
investigational; nutraceutical

>  <GENERIC_NAME>
Coenzyme A

>  <SYNONYMS>
3'-phosphoadenosine-(5')diphospho(4')pantatheine; CoA; CoA-SH; CoASH; HSCoA

$$$$
693
 OpenBabel05042401512D

 34 37  0  0  1  0  0  0  0  0999 V2000
    3.6140    0.4249    0.0000 C   0  0  0  0  0  0  0  0  0  0  0  0
    3.6140   -0.4001    0.0000 C   0  0  0  0  0  0  0  0  0  0  0  0
    2.8995   -0.8126    0.0000 C   0  0  0  0  0  0  0  0  0  0  0  0
    2.1851   -0.4001    0.0000 C   0  0  0  0  0  0  0  0  0  0  0  0
    2.1851    0.4249    0.0000 C   0  0  0  0  0  0  0  0  0  0  0  0
    2.8995    0.8374    0.0000 C   0  0  0  0  0  0  0  0  0  0  0  0
    4.3285    0.8374    0.0000 C   0  0  0  0  0  0  0  0  0  0  0  0
    5.0429    0.4249    0.0000 N   0  0  0  0  0  0  0  0  0  0  0  0
    4.3285    1.6624    0.0000 N   0  3  0  0  0  0  0  0  0  0  0  0
    1.4004   -0.6551    0.0000 N   0  0  0  0  0  0  0  0  0  0  0  0
    1.4004    0.6798    0.0000 N   0  0  0  0  0  0  0  0  0  0  0  0
    0.9155    0.0124    0.0000 C   0  0  0  0  0  0  0  0  0  0  0  0
    0.0905    0.0124    0.0000 C   0  0  0  0  0  0  0  0  0  0  0  0
   -0.3220   -0.7021    0.0000 C   0  0  0  0  0  0  0  0  0  0  0  0
   -1.1470   -0.7021    0.0000 C   0  0  0  0  0  0  0  0  0  0  0  0
   -1.5595   -1.4166    0.0000 C   0  0  2  0  0  0  0  0  0  0  0  0
   -2.3845   -1.4166    0.0000 C   0  0  0  0  0  0  0  0  0  0  0  0
   -2.7970   -2.1310    0.0000 O   0  0  0  0  0  0  0  0  0  0  0  0
   -2.7970   -0.7021    0.0000 O   0  5  0  0  0  0  0  0  0  0  0  0
   -1.1470   -2.1310    0.0000 C   0  0  0  0  0  0  0  0  0  0  0  0
   -1.5595   -2.8455    0.0000 C   0  0  0  0  0  0  0  0  0  0  0  0
   -1.1470   -3.5600    0.0000 O   0  0  0  0  0  0  0  0  0  0  0  0
   -2.3845   -2.8455    0.0000 O   0  5  0  0  0  0  0  0  0  0  0  0
   -1.5595    0.0124    0.0000 C   0  0  0  0  0  0  0  0  0  0  0  0
   -1.1470    0.7269    0.0000 C   0  0  0  0  0  0  0  0  0  0  0  0
   -0.3220    0.7269    0.0000 C   0  0  0  0  0  0  0  0  0  0  0  0
    0.0905    1.4413    0.0000 O   0  5  0  0  0  0  0  0  0  0  0  0
   -1.5595    1.4413    0.0000 C   0  0  0  0  0  0  0  0  0  0  0  0
   -2.3845    1.4413    0.0000 C   0  0  0  0  0  0  0  0  0  0  0  0
   -2.7970    2.1558    0.0000 C   0  0  0  0  0  0  0  0  0  0  0  0
   -2.3845    2.8703    0.0000 C   0  0  0  0  0  0  0  0  0  0  0  0
   -1.5595    2.8703    0.0000 C   0  0  0  0  0  0  0  0  0  0  0  0
   -1.1470    2.1558    0.0000 C   0  0  0  0  0  0  0  0  0  0  0  0
   -2.7970    0.7269    0.0000 F   0  0  0  0  0  0  0  0  0  0  0  0
  1  2  2  0  0  0  0
  1  6  1  0  0  0  0
  1  7  1  0  0  0  0
  2  3  1  0  0  0  0
  3  4  2  0  0  0  0
  4  5  1  0  0  0  0
  4 10  1  0  0  0  0
  5  6  2  0  0  0  0
  5 11  1  0  0  0  0
  7  8  1  0  0  0  0
  7  9  2  0  0  0  0
 10 12  1  0  0  0  0
 11 12  2  0  0  0  0
 12 13  1  0  0  0  0
 13 14  2  0  0  0  0
 13 26  1  0  0  0  0
 14 15  1  0  0  0  0
 15 24  2  0  0  0  0
 16 15  1  1  0  0  0
 16 17  1  0  0  0  0
 16 20  1  0  0  0  0
 17 18  2  0  0  0  0
 17 19  1  0  0  0  0
 20 21  1  0  0  0  0
 21 22  2  0  0  0  0
 21 23  1  0  0  0  0
 24 25  1  0  0  0  0
 25 26  2  0  0  0  0
 25 28  1  0  0  0  0
 26 27  1  0  0  0  0
 28 29  2  0  0  0  0
 28 33  1  0  0  0  0
 29 30  1  0  0  0  0
 29 34  1  0  0  0  0
 30 31  2  0  0  0  0
 31 32  1  0  0  0  0
 32 33  2  0  0  0  0
M  CHG  4   9   1  19  -1  23  -1  27  -1
M  END
>  <DATABASE_ID>
DB01741

>  <DATABASE_NAME>
drugbank

>  <SMILES>
NC(=[NH2+])C1=CC=C2NC(=NC2=C1)C1=CC(=CC(=C1[O-])C1=C(F)C=CC=C1)[C@@H](CC([O-])=O)C([O-])=O

>  <INCHI_IDENTIFIER>
InChI=1S/C24H19FN4O5/c25-17-4-2-1-3-13(17)15-7-12(14(24(33)34)10-20(30)31)8-16(21(15)32)23-28-18-6-5-11(22(26)27)9-19(18)29-23/h1-9,14,32H,10H2,(H3,26,27)(H,28,29)(H,30,31)(H,33,34)/p-2/t14-/m1/s1

>  <INCHI_KEY>
XCOFROALSAFROV-CQSZACIVSA-L

>  <FORMULA>
C24H17FN4O5

>  <MOLECULAR_WEIGHT>
460.414

>  <EXACT_MASS>
460.118297879

>  <JCHEM_ACCEPTOR_COUNT>
7

>  <JCHEM_ATOM_COUNT>
51

>  <JCHEM_AVERAGE_NEUTRAL_MICROSPECIES_CHARGE>
-1.0342115996960237

>  <JCHEM_AVERAGE_POLARIZABILITY>
45.85713379668573

>  <JCHEM_BIOAVAILABILITY>
1

>  <JCHEM_DONOR_COUNT>
3

>  <JCHEM_FORMAL_CHARGE>
-2

>  <JCHEM_GHOSE_FILTER>
0

>  <JCHEM_IUPAC>
(2R)-2-(5-{5-[amino(iminiumyl)methyl]-1H-1,3-benzodiazol-2-yl}-2'-fluoro-6-oxido-[1,1'-biphenyl]-3-yl)butanedioate

>  <ALOGPS_LOGP>
1.43

>  <JCHEM_LOGP>
1.1302587339669992

>  <ALOGPS_LOGS>
-4.95

>  <JCHEM_MDDR_LIKE_RULE>
1

>  <JCHEM_NEUTRAL_CHARGE>
-1

>  <JCHEM_NUMBER_OF_RINGS>
4

>  <JCHEM_PHYSIOLOGICAL_CHARGE>
-1

>  <JCHEM_PKA>
5.356840004940109

>  <JCHEM_PKA_STRONGEST_ACIDIC>
3.6301529362372085

>  <JCHEM_PKA_STRONGEST_BASIC>
10.59860919516439

>  <JCHEM_POLAR_SURFACE_AREA>
183.61

>  <JCHEM_REFRACTIVITY>
174.24909999999994

>  <JCHEM_ROTATABLE_BOND_COUNT>
7

>  <JCHEM_RULE_OF_FIVE>
1

>  <ALOGPS_SOLUBILITY>
6.23e-03 g/l

>  <JCHEM_TRADITIONAL_IUPAC>
tetrahydrofolic acid

>  <JCHEM_VEBER_RULE>
0

>  <DRUGBANK_ID>
DB01741

>  <SECONDARY_ACCESSION_NUMBERS>
EXPT00281

>  <DRUG_GROUPS>
experimental

>  <GENERIC_NAME>
CRA_17693

$$$$

 OpenBabel05042401512D

 23 24  0  0  1  0  0  0  0  0999 V2000
   -2.2393   -2.2098    0.0000 O   0  0  0  0  0  0  0  0  0  0  0  0
   -2.9538   -2.6223    0.0000 C   0  0  1  0  0  0  0  0  0  0  0  0
   -2.9538   -3.4473    0.0000 C   0  0  2  0  0  0  0  0  0  0  0  0
   -2.2393   -3.8598    0.0000 C   0  0  1  0  0  0  0  0  0  0  0  0
   -1.5248   -3.4473    0.0000 C   0  0  1  0  0  0  0  0  0  0  0  0
   -1.5248   -2.6223    0.0000 C   0  0  2  0  0  0  0  0  0  0  0  0
   -0.8103   -2.2098    0.0000 O   0  0  0  0  0  0  0  0  0  0  0  0
   -0.8103   -3.8598    0.0000 O   0  0  0  0  0  0  0  0  0  0  0  0
   -2.2393   -4.6848    0.0000 O   0  0  0  0  0  0  0  0  0  0  0  0
   -3.6682   -3.8598    0.0000 O   0  0  0  0  0  0  0  0  0  0  0  0
   -3.6682   -2.2098    0.0000 C   0  0  0  0  0  0  0  0  0  0  0  0
   -4.3827   -2.6223    0.0000 O   0  0  0  0  0  0  0  0  0  0  0  0
    0.6186   -0.5598    0.0000 O   0  0  0  0  0  0  0  0  0  0  0  0
   -0.0959   -0.9723    0.0000 C   0  0  1  0  0  0  0  0  0  0  0  0
   -0.0959   -1.7973    0.0000 C   0  0  2  0  0  0  0  0  0  0  0  0
    0.6186   -2.2098    0.0000 C   0  0  1  0  0  0  0  0  0  0  0  0
    1.3331   -1.7973    0.0000 C   0  0  1  0  0  0  0  0  0  0  0  0
    1.3331   -0.9723    0.0000 C   0  0  2  0  0  0  0  0  0  0  0  0
    2.0475   -0.5598    0.0000 O   0  0  0  0  0  0  0  0  0  0  0  0
    2.0475   -2.2098    0.0000 O   0  0  0  0  0  0  0  0  0  0  0  0
    0.6186   -3.0348    0.0000 O   0  0  0  0  0  0  0  0  0  0  0  0
   -0.8103   -0.5598    0.0000 C   0  0  0  0  0  0  0  0  0  0  0  0
   -1.5248   -0.9723    0.0000 O   0  0  0  0  0  0  0  0  0  0  0  0
  1  2  1  0  0  0  0
  1  6  1  0  0  0  0
  2  3  1  0  0  0  0
  2 11  1  1  0  0  0
  3  4  1  0  0  0  0
  3 10  1  6  0  0  0
  4  5  1  0  0  0  0
  4  9  1  1  0  0  0
  5  6  1  0  0  0  0
  5  8  1  1  0  0  0
  6  7  1  1  0  0  0
 11 12  1  0  0  0  0
 13 14  1  0  0  0  0
 13 18  1  0  0  0  0
 14 15  1  0  0  0  0
 14 22  1  1  0  0  0
 15  7  1  6  0  0  0
 15 16  1  0  0  0  0
 16 17  1  0  0  0  0
 16 21  1  1  0  0  0
 17 18  1  0  0  0  0
 17 20  1  1  0  0  0
 18 19  1  1  0  0  0
 22 23  1  0  0  0  0
M  END
>  <DATABASE_ID>
DB01687

>  <DATABASE_NAME>
drugbank

>  <SMILES>
OC[C@H]1O[C@@H](O[C@H]2[C@H](O)[C@H](O)[C@H](O)O[C@@H]2CO)[C@@H](O)[C@@H](O)[C@@H]1O

>  <INCHI_IDENTIFIER>
InChI=1S/C12H22O11/c13-1-3-5(15)6(16)9(19)12(22-3)23-10-4(2-14)21-11(20)8(18)7(10)17/h3-20H,1-2H2/t3-,4-,5-,6+,7-,8+,9+,10-,11-,12+/m1/s1

>  <INCHI_KEY>
GUBGYTABKSRVRQ-PZPXDAEZSA-N

>  <FORMULA>
C12H22O11

>  <MOLECULAR_WEIGHT>
342.2965

>  <EXACT_MASS>
342.116211546

>  <JCHEM_ACCEPTOR_COUNT>
11

>  <JCHEM_ATOM_COUNT>
45

>  <JCHEM_AVERAGE_NEUTRAL_MICROSPECIES_CHARGE>
-6.614814377167016e-05

>  <JCHEM_AVERAGE_POLARIZABILITY>
31.166891020582145

>  <JCHEM_BIOAVAILABILITY>
0

>  <JCHEM_DONOR_COUNT>
8

>  <JCHEM_FORMAL_CHARGE>
0

>  <JCHEM_GHOSE_FILTER>
0

>  <JCHEM_IUPAC>
(2R,3S,4S,5S,6S)-2-(hydroxymethyl)-6-{[(2R,3S,4R,5S,6R)-4,5,6-trihydroxy-2-(hydroxymethyl)oxan-3-yl]oxy}oxane-3,4,5-triol

>  <ALOGPS_LOGP>
-3.01

>  <JCHEM_LOGP>
-4.703374863666666

>  <ALOGPS_LOGS>
0.23

>  <JCHEM_MDDR_LIKE_RULE>
0

>  <JCHEM_NEUTRAL_CHARGE>
0

>  <JCHEM_NUMBER_OF_RINGS>
2

>  <JCHEM_PHYSIOLOGICAL_CHARGE>
0

>  <JCHEM_PKA>
12.173689317234611

>  <JCHEM_PKA_STRONGEST_ACIDIC>
11.254374125721942

>  <JCHEM_PKA_STRONGEST_BASIC>
-2.9810835652988272

>  <JCHEM_POLAR_SURFACE_AREA>
189.52999999999997

>  <JCHEM_REFRACTIVITY>
68.3367

>  <JCHEM_ROTATABLE_BOND_COUNT>
4

>  <JCHEM_RULE_OF_FIVE>
0

>  <ALOGPS_SOLUBILITY>
5.86e+02 g/l

>  <JCHEM_TRADITIONAL_IUPAC>
tetrahydrofolic acid

>  <JCHEM_VEBER_RULE>
0

>  <DRUGBANK_ID>
DB01687

>  <SECONDARY_ACCESSION_NUMBERS>
EXPT02103

>  <DRUG_GROUPS>
experimental

>  <GENERIC_NAME>
beta-Mannobiose

>  <SYNONYMS>
4-O-β-D-mannopyranosyl-β-D-mannopyranose; β-mannobiose

$$$$

 OpenBabel05042401512D

 44 46  0  0  1  0  0  0  0  0999 V2000
   -0.7124    0.2000    0.0000 C   0  0  2  0  0  0  0  0  0  0  0  0
    0.0000   -0.2125    0.0000 C   0  0  0  0  0  0  0  0  0  0  0  0
    0.0000    2.2500    0.0000 C   0  0  0  0  0  0  0  0  0  0  0  0
    0.0000    1.4292    0.0000 N   0  0  0  0  0  0  0  0  0  0  0  0
   -2.1417    0.2000    0.0000 C   0  0  0  0  0  0  0  0  0  0  0  0
    2.1458    0.2000    0.0000 C   0  0  0  0  0  0  0  0  0  0  0  0
    0.7124    0.2000    0.0000 N   0  0  0  0  0  0  0  0  0  0  0  0
   -0.7124    1.0250    0.0000 C   0  0  3  0  0  0  0  0  0  0  0  0
   -1.4292   -0.2125    0.0000 N   0  0  0  0  0  0  0  0  0  0  0  0
    0.7124    2.6667    0.0000 N   0  0  0  0  0  0  0  0  0  0  0  0
    1.4250   -0.2125    0.0000 C   0  0  1  0  0  0  0  0  0  0  0  0
   -2.8625   -0.2125    0.0000 N   0  0  0  0  0  0  0  0  0  0  0  0
   -3.5750    0.2000    0.0000 C   0  0  2  0  0  0  0  0  0  0  0  0
   -4.2875   -0.2125    0.0000 C   0  0  0  0  0  0  0  0  0  0  0  0
    2.8583   -0.2125    0.0000 N   0  0  0  0  0  0  0  0  0  0  0  0
   -0.7124    2.6667    0.0000 N   0  0  0  0  0  0  0  0  0  0  0  0
    0.0000   -1.0375    0.0000 O   0  0  0  0  0  0  0  0  0  0  0  0
   -2.1417    1.0250    0.0000 O   0  0  0  0  0  0  0  0  0  0  0  0
    2.1458    1.0250    0.0000 O   0  0  0  0  0  0  0  0  0  0  0  0
   -3.5750    1.0250    0.0000 C   0  0  0  0  0  0  0  0  0  0  0  0
   -4.2875   -1.0375    0.0000 O   0  0  0  0  0  0  0  0  0  0  0  0
    1.4250   -1.0375    0.0000 C   0  0  0  0  0  0  0  0  0  0  0  0
    3.5750    0.2000    0.0000 C   0  0  2  0  0  0  0  0  0  0  0  0
    4.2875   -1.0375    0.0000 O   0  0  0  0  0  0  0  0  0  0  0  0
   -1.4292    1.4292    0.0000 C   0  0  0  0  0  0  0  0  0  0  0  0
    4.2875   -0.2125    0.0000 C   0  0  0  0  0  0  0  0  0  0  0  0
   -1.4250    2.2624    0.0000 C   0  0  0  0  0  0  0  0  0  0  0  0
   -5.0000    0.2000    0.0000 O   0  0  0  0  0  0  0  0  0  0  0  0
    3.5750    1.0250    0.0000 C   0  0  0  0  0  0  0  0  0  0  0  0
   -4.2875    1.4374    0.0000 C   0  0  0  0  0  0  0  0  0  0  0  0
    4.2875    1.4374    0.0000 C   0  0  0  0  0  0  0  0  0  0  0  0
    2.1250   -1.7332    0.0000 C   0  0  0  0  0  0  0  0  0  0  0  0
   -4.2875    2.2624    0.0000 C   0  0  0  0  0  0  0  0  0  0  0  0
   -5.0000    1.0250    0.0000 C   0  0  0  0  0  0  0  0  0  0  0  0
    4.2875    2.2624    0.0000 C   0  0  0  0  0  0  0  0  0  0  0  0
    5.0000    1.0250    0.0000 C   0  0  0  0  0  0  0  0  0  0  0  0
    1.8707   -2.6750    0.0000 C   0  0  0  0  0  0  0  0  0  0  0  0
    3.0625   -1.4750    0.0000 C   0  0  0  0  0  0  0  0  0  0  0  0
   -5.7125    1.4374    0.0000 C   0  0  0  0  0  0  0  0  0  0  0  0
   -5.0000    2.6750    0.0000 C   0  0  0  0  0  0  0  0  0  0  0  0
    5.7125    1.4374    0.0000 C   0  0  0  0  0  0  0  0  0  0  0  0
    4.9958    2.6750    0.0000 C   0  0  0  0  0  0  0  0  0  0  0  0
    5.7125    2.2624    0.0000 C   0  0  0  0  0  0  0  0  0  0  0  0
   -5.7125    2.2624    0.0000 C   0  0  0  0  0  0  0  0  0  0  0  0
  1  2  1  1  0  0  0
  1  8  1  0  0  0  0
  3  4  1  0  0  0  0
  3 16  1  0  0  0  0
  4  8  1  0  0  0  0
  5  9  1  0  0  0  0
  7  2  1  0  0  0  0
  9  1  1  0  0  0  0
 10  3  2  0  0  0  0
 11  6  1  6  0  0  0
 11  7  1  0  0  0  0
 11 22  1  0  0  0  0
 12  5  1  0  0  0  0
 13 12  1  6  0  0  0
 13 20  1  0  0  0  0
 14 13  1  0  0  0  0
 15  6  1  0  0  0  0
 16 27  1  0  0  0  0
 17  2  2  0  0  0  0
 18  5  2  0  0  0  0
 19  6  2  0  0  0  0
 21 14  2  0  0  0  0
 23 15  1  1  0  0  0
 23 29  1  0  0  0  0
 24 26  2  0  0  0  0
 25  8  1  0  0  0  0
 26 23  1  0  0  0  0
 27 25  1  0  0  0  0
 28 14  1  0  0  0  0
 30 20  1  0  0  0  0
 31 29  1  0  0  0  0
 32 22  1  0  0  0  0
 33 30  2  0  0  0  0
 34 30  1  0  0  0  0
 35 31  1  0  0  0  0
 36 31  2  0  0  0  0
 37 32  1  0  0  0  0
 38 32  1  0  0  0  0
 39 34  2  0  0  0  0
 40 33  1  0  0  0  0
 40 44  2  0  0  0  0
 41 36  1  0  0  0  0
 42 35  2  0  0  0  0
 42 43  1  0  0  0  0
 43 41  2  0  0  0  0
 44 39  1  0  0  0  0
M  END
>  <DATABASE_ID>
DB01683

>  <DATABASE_NAME>
drugbank

>  <SMILES>
CC(C)C[C@H](NC(=O)[C@@H](NC(=O)N[C@@H](CC1=CC=CC=C1)C(O)=O)C1CCNC(=N)N1)C(=O)N[C@@H](CC1=CC=CC=C1)C=O

>  <INCHI_IDENTIFIER>
InChI=1S/C31H41N7O6/c1-19(2)15-24(27(40)34-22(18-39)16-20-9-5-3-6-10-20)35-28(41)26(23-13-14-33-30(32)36-23)38-31(44)37-25(29(42)43)17-21-11-7-4-8-12-21/h3-12,18-19,22-26H,13-17H2,1-2H3,(H,34,40)(H,35,41)(H,42,43)(H3,32,33,36)(H2,37,38,44)/t22-,23?,24-,25-,26-/m0/s1

>  <INCHI_KEY>
MRXDGVXSWIXTQL-HYHFHBMOSA-N

>  <FORMULA>
C31H41N7O6

>  <MOLECULAR_WEIGHT>
607.712

>  <EXACT_MASS>
607.311832068

>  <JCHEM_ACCEPTOR_COUNT>
9

>  <JCHEM_ATOM_COUNT>
85

>  <JCHEM_AVERAGE_POLARIZABILITY>
61.908541137517645

>  <JCHEM_BIOAVAILABILITY>
0

>  <JCHEM_DONOR_COUNT>
8

>  <JCHEM_FORMAL_CHARGE>
0

>  <JCHEM_GHOSE_FILTER>
0

>  <JCHEM_IUPAC>
(2S)-2-({[(S)-(2-imino-1,3-diazinan-4-yl)({[(1S)-3-methyl-1-{[(2S)-1-oxo-3-phenylpropan-2-yl]carbamoyl}butyl]carbamoyl})methyl]carbamoyl}amino)-3-phenylpropanoic acid

>  <ALOGPS_LOGP>
1.03

>  <JCHEM_LOGP>
-0.3946911693796881

>  <ALOGPS_LOGS>
-4.52

>  <JCHEM_MDDR_LIKE_RULE>
1

>  <JCHEM_NUMBER_OF_RINGS>
3

>  <JCHEM_PHYSIOLOGICAL_CHARGE>
0

>  <JCHEM_PKA>
12.279097617043526

>  <JCHEM_PKA_STRONGEST_ACIDIC>
3.410413790013015

>  <JCHEM_PKA_STRONGEST_BASIC>
10.99389093308113

>  <JCHEM_POLAR_SURFACE_AREA>
201.60999999999996

>  <JCHEM_REFRACTIVITY>
171.9309999999999

>  <JCHEM_ROTATABLE_BOND_COUNT>
15

>  <JCHEM_RULE_OF_FIVE>
0

>  <ALOGPS_SOLUBILITY>
1.82e-02 g/l

>  <JCHEM_TRADITIONAL_IUPAC>
4-(hydroxymercury)benzoic acid

>  <JCHEM_VEBER_RULE>
0

>  <DRUGBANK_ID>
DB01683

>  <SECONDARY_ACCESSION_NUMBERS>
EXPT00915

>  <DRUG_GROUPS>
experimental

>  <GENERIC_NAME>
Chymostatin

$$$$

 OpenBabel05042401512D

 27 30  0  0  0  0  0  0  0  0999 V2000
   -2.5006   -0.8250    0.0000 C   0  0  0  0  0  0  0  0  0  0  0  0
   -3.2151   -0.4125    0.0000 C   0  0  0  0  0  0  0  0  0  0  0  0
   -3.9296   -0.8250    0.0000 C   0  0  0  0  0  0  0  0  0  0  0  0
   -3.9296   -1.6500    0.0000 C   0  0  0  0  0  0  0  0  0  0  0  0
   -3.2151   -2.0625    0.0000 C   0  0  0  0  0  0  0  0  0  0  0  0
   -2.5006   -1.6500    0.0000 C   0  0  0  0  0  0  0  0  0  0  0  0
   -1.7862   -2.0625    0.0000 S   0  0  0  0  0  0  0  0  0  0  0  0
   -1.0716   -1.6500    0.0000 C   0  0  0  0  0  0  0  0  0  0  0  0
   -1.0716   -0.8250    0.0000 C   0  0  0  0  0  0  0  0  0  0  0  0
   -1.7862   -0.4125    0.0000 C   0  0  0  0  0  0  0  0  0  0  0  0
   -0.3572   -0.4125    0.0000 C   0  0  0  0  0  0  0  0  0  0  0  0
   -0.3572   -2.0625    0.0000 C   0  0  0  0  0  0  0  0  0  0  0  0
    0.3572   -1.6500    0.0000 C   0  0  0  0  0  0  0  0  0  0  0  0
    0.3572   -0.8250    0.0000 C   0  0  0  0  0  0  0  0  0  0  0  0
   -1.7862    0.4125    0.0000 C   0  0  0  0  0  0  0  0  0  0  0  0
   -1.0716    0.8250    0.0000 C   0  0  0  0  0  0  0  0  0  0  0  0
   -0.3573    0.4125    0.0000 C   0  0  0  0  0  0  0  0  0  0  0  0
    0.3571    0.8250    0.0000 N   0  0  0  0  0  0  0  0  0  0  0  0
    1.0716    2.0625    0.0000 C   0  0  0  0  0  0  0  0  0  0  0  0
    0.3571    1.6500    0.0000 C   0  0  0  0  0  0  0  0  0  0  0  0
    1.0716    0.4125    0.0000 C   0  0  0  0  0  0  0  0  0  0  0  0
    1.7860    0.8250    0.0000 C   0  0  0  0  0  0  0  0  0  0  0  0
    1.7860    1.6500    0.0000 N   0  0  0  0  0  0  0  0  0  0  0  0
    2.5005    2.0625    0.0000 C   0  0  0  0  0  0  0  0  0  0  0  0
    3.2151    1.6500    0.0000 C   0  0  0  0  0  0  0  0  0  0  0  0
    3.9296    2.0625    0.0000 O   0  0  0  0  0  0  0  0  0  0  0  0
    1.0716   -0.4125    0.0000 Cl  0  0  0  0  0  0  0  0  0  0  0  0
  1  2  1  0  0  0  0
  1  6  2  0  0  0  0
  1 10  1  0  0  0  0
  2  3  2  0  0  0  0
  3  4  1  0  0  0  0
  4  5  2  0  0  0  0
  5  6  1  0  0  0  0
  6  7  1  0  0  0  0
  7  8  1  0  0  0  0
  8  9  2  0  0  0  0
  8 12  1  0  0  0  0
  9 10  1  0  0  0  0
 10 15  2  0  0  0  0
 11  9  1  0  0  0  0
 11 14  2  0  0  0  0
 12 13  2  0  0  0  0
 13 14  1  0  0  0  0
 14 27  1  0  0  0  0
 15 16  1  0  0  0  0
 16 17  1  0  0  0  0
 17 18  1  0  0  0  0
 18 21  1  0  0  0  0
 19 20  1  0  0  0  0
 19 23  1  0  0  0  0
 20 18  1  0  0  0  0
 21 22  1  0  0  0  0
 22 23  1  0  0  0  0
 23 24  1  0  0  0  0
 24 25  1  0  0  0  0
 25 26  1  0  0  0  0
M  END
>  <DATABASE_ID>
DB01624

>  <DATABASE_NAME>
drugbank

>  <SMILES>
OCCN1CCN(CC\C=C2\C3=C(SC4=C2C=C(Cl)C=C4)C=CC=C3)CC1

>  <INCHI_IDENTIFIER>
InChI=1S/C22H25ClN2OS/c23-17-7-8-22-20(16-17)18(19-4-1-2-6-21(19)27-22)5-3-9-24-10-12-25(13-11-24)14-15-26/h1-2,4-8,16,26H,3,9-15H2/b18-5-

>  <INCHI_KEY>
WFPIAZLQTJBIFN-DVZOWYKESA-N

>  <FORMULA>
C22H25ClN2OS

>  <MOLECULAR_WEIGHT>
400.965

>  <EXACT_MASS>
400.137611829

>  <JCHEM_ACCEPTOR_COUNT>
3

>  <JCHEM_ATOM_COUNT>
52

>  <JCHEM_AVERAGE_NEUTRAL_MICROSPECIES_CHARGE>
1.9958485843579985

>  <JCHEM_AVERAGE_POLARIZABILITY>
45.290122887940285

>  <JCHEM_BIOAVAILABILITY>
1

>  <JCHEM_DONOR_COUNT>
1

>  <JCHEM_FORMAL_CHARGE>
0

>  <JCHEM_GHOSE_FILTER>
1

>  <JCHEM_IUPAC>
2-(4-{3-[(9Z)-2-chloro-9H-thioxanthen-9-ylidene]propyl}piperazin-1-yl)ethan-1-ol

>  <ALOGPS_LOGP>
4.46

>  <JCHEM_LOGP>
4.22298393

>  <ALOGPS_LOGS>
-5.19

>  <JCHEM_MDDR_LIKE_RULE>
0

>  <JCHEM_NEUTRAL_CHARGE>
1

>  <JCHEM_NUMBER_OF_RINGS>
4

>  <JCHEM_PHYSIOLOGICAL_CHARGE>
1

>  <JCHEM_PKA_STRONGEST_ACIDIC>
15.593097839126463

>  <JCHEM_PKA_STRONGEST_BASIC>
8.027568302243756

>  <JCHEM_POLAR_SURFACE_AREA>
26.71

>  <JCHEM_REFRACTIVITY>
127.00030000000002

>  <JCHEM_ROTATABLE_BOND_COUNT>
5

>  <JCHEM_RULE_OF_FIVE>
1

>  <ALOGPS_SOLUBILITY>
2.60e-03 g/l

>  <JCHEM_TRADITIONAL_IUPAC>
zuclopenthixol

>  <JCHEM_VEBER_RULE>
1

>  <DRUGBANK_ID>
DB01624

>  <SECONDARY_ACCESSION_NUMBERS>
DB08919; DB08920

>  <DRUG_GROUPS>
approved; investigational

>  <GENERIC_NAME>
Zuclopenthixol

>  <SYNONYMS>
(Z)-4-(3-(2-Chlorothioxanthen-9-ylidene)propyl)-1-piperazineethanol; Zuclopenthixol; Zuclopenthixolum; Zuclopentixol

>  <PRODUCTS>
Clopixol - Tab 10mg; Clopixol - Tab 25mg; Clopixol - Tab 40mg; Clopixol Acuphase - Liq Im 50mg/ml; Clopixol Depot - Liq Im 200mg/ml; Clopixol Depot - Liq Im 500mg/ml; Clopixol Depot 200mg/ml; Clopixol Depot 500mg/ml; Clopixol Tablets 10mg; Clopixol Tablets 25mg; Clopixol Tablets 40mg; Clopixol-acuphase 50mg/ml

>  <INTERNATIONAL_BRANDS>
Acuphase; Ciatyl-Z; Cisordinol; Clopixol

>  <SALTS>
Zuclopenthixol acetate; Zuclopenthixol decanoate; Zuclopenthixol dihydrochloride

$$$$

 OpenBabel05042401512D

 62 63  0  0  1  0  0  0  0  0999 V2000
   -2.1433   -0.6174    0.0000 C   0  0  0  0  0  0  0  0  0  0  0  0
   -2.8574   -1.0305    0.0000 C   0  0  0  0  0  0  0  0  0  0  0  0
   -3.5715   -0.6174    0.0000 C   0  0  0  0  0  0  0  0  0  0  0  0
   -3.5715    0.2089    0.0000 C   0  0  0  0  0  0  0  0  0  0  0  0
   -2.8574    0.6176    0.0000 C   0  0  0  0  0  0  0  0  0  0  0  0
   -2.1433    0.2089    0.0000 C   0  0  0  0  0  0  0  0  0  0  0  0
   -1.4292    0.6176    0.0000 I   0  0  0  0  0  0  0  0  0  0  0  0
   -2.8574    1.4440    0.0000 C   0  0  0  0  0  0  0  0  0  0  0  0
   -3.5715    1.8572    0.0000 N   0  0  0  0  0  0  0  0  0  0  0  0
   -3.5715    2.6835    0.0000 C   0  0  0  0  0  0  0  0  0  0  0  0
   -4.2856    3.0967    0.0000 C   0  0  3  0  0  0  0  0  0  0  0  0
   -4.2856    3.9184    0.0000 C   0  0  0  0  0  0  0  0  0  0  0  0
   -4.9997    4.3318    0.0000 O   0  0  0  0  0  0  0  0  0  0  0  0
   -4.9997    2.6835    0.0000 O   0  0  0  0  0  0  0  0  0  0  0  0
   -2.1433    1.8572    0.0000 O   0  0  0  0  0  0  0  0  0  0  0  0
   -4.2856    0.6176    0.0000 I   0  0  0  0  0  0  0  0  0  0  0  0
   -4.2856   -1.0305    0.0000 C   0  0  0  0  0  0  0  0  0  0  0  0
   -4.9997   -0.6173    0.0000 O   0  0  0  0  0  0  0  0  0  0  0  0
   -2.8574   -1.8569    0.0000 I   0  0  0  0  0  0  0  0  0  0  0  0
   -1.4292   -1.0305    0.0000 N   0  0  0  0  0  0  0  0  0  0  0  0
   -0.7151   -0.6174    0.0000 C   0  0  0  0  0  0  0  0  0  0  0  0
    0.0033   -1.0305    0.0000 C   0  0  3  0  0  0  0  0  0  0  0  0
    0.7173   -0.6174    0.0000 C   0  0  0  0  0  0  0  0  0  0  0  0
    1.4314   -1.0305    0.0000 N   0  0  0  0  0  0  0  0  0  0  0  0
    2.1456   -0.6174    0.0000 C   0  0  0  0  0  0  0  0  0  0  0  0
    2.1456    0.2089    0.0000 C   0  0  0  0  0  0  0  0  0  0  0  0
    2.8597    0.6176    0.0000 C   0  0  0  0  0  0  0  0  0  0  0  0
    3.5738    0.2089    0.0000 C   0  0  0  0  0  0  0  0  0  0  0  0
    3.5738   -0.6174    0.0000 C   0  0  0  0  0  0  0  0  0  0  0  0
    2.8597   -1.0305    0.0000 C   0  0  0  0  0  0  0  0  0  0  0  0
    2.8597   -1.8569    0.0000 I   0  0  0  0  0  0  0  0  0  0  0  0
    4.2879   -1.0305    0.0000 C   0  0  0  0  0  0  0  0  0  0  0  0
    4.2879    0.6176    0.0000 I   0  0  0  0  0  0  0  0  0  0  0  0
    2.8597    1.4440    0.0000 C   0  0  0  0  0  0  0  0  0  0  0  0
    3.5738    1.8572    0.0000 N   0  0  0  0  0  0  0  0  0  0  0  0
    3.5738    2.6835    0.0000 C   0  0  0  0  0  0  0  0  0  0  0  0
    4.2879    3.0967    0.0000 C   0  0  3  0  0  0  0  0  0  0  0  0
    4.2879    3.9184    0.0000 C   0  0  0  0  0  0  0  0  0  0  0  0
    5.0019    4.3318    0.0000 O   0  0  0  0  0  0  0  0  0  0  0  0
    5.0019    2.6835    0.0000 O   0  0  0  0  0  0  0  0  0  0  0  0
    2.1456    1.8572    0.0000 O   0  0  0  0  0  0  0  0  0  0  0  0
    1.4314    0.6176    0.0000 I   0  0  0  0  0  0  0  0  0  0  0  0
    1.4314   -1.8569    0.0000 C   0  0  0  0  0  0  0  0  0  0  0  0
    0.7173   -2.2657    0.0000 O   0  0  0  0  0  0  0  0  0  0  0  0
    2.1456   -2.2657    0.0000 C   0  0  0  0  0  0  0  0  0  0  0  0
    0.0033   -1.8569    0.0000 O   0  0  0  0  0  0  0  0  0  0  0  0
   -1.4292   -1.8569    0.0000 C   0  0  0  0  0  0  0  0  0  0  0  0
   -0.7151   -2.2657    0.0000 O   0  0  0  0  0  0  0  0  0  0  0  0
   -2.1433   -2.2657    0.0000 C   0  0  0  0  0  0  0  0  0  0  0  0
   -4.2856   -1.8555    0.0000 N   0  0  0  0  0  0  0  0  0  0  0  0
   -5.0001   -2.2681    0.0000 C   0  0  0  0  0  0  0  0  0  0  0  0
   -5.0001   -3.0930    0.0000 C   0  0  3  0  0  0  0  0  0  0  0  0
   -5.7147   -3.5056    0.0000 C   0  0  0  0  0  0  0  0  0  0  0  0
   -4.2857   -3.5056    0.0000 O   0  0  0  0  0  0  0  0  0  0  0  0
   -5.7147   -4.3305    0.0000 O   0  0  0  0  0  0  0  0  0  0  0  0
    4.2872   -1.8555    0.0000 N   0  0  0  0  0  0  0  0  0  0  0  0
    5.0027   -0.6186    0.0000 O   0  0  0  0  0  0  0  0  0  0  0  0
    5.0013   -2.2686    0.0000 C   0  0  0  0  0  0  0  0  0  0  0  0
    5.0006   -3.0936    0.0000 C   0  0  3  0  0  0  0  0  0  0  0  0
    5.7147   -3.5068    0.0000 C   0  0  0  0  0  0  0  0  0  0  0  0
    5.7140   -4.3318    0.0000 O   0  0  0  0  0  0  0  0  0  0  0  0
    4.2858   -3.5056    0.0000 O   0  0  0  0  0  0  0  0  0  0  0  0
  1  2  1  0  0  0  0
  1  6  2  0  0  0  0
  1 20  1  0  0  0  0
  2  3  2  0  0  0  0
  2 19  1  0  0  0  0
  3  4  1  0  0  0  0
  3 17  1  0  0  0  0
  4 16  1  0  0  0  0
  5  4  2  0  0  0  0
  5  8  1  0  0  0  0
  6  5  1  0  0  0  0
  6  7  1  0  0  0  0
  8  9  1  0  0  0  0
  8 15  2  0  0  0  0
  9 10  1  0  0  0  0
 10 11  1  0  0  0  0
 11 12  1  0  0  0  0
 11 14  1  0  0  0  0
 12 13  1  0  0  0  0
 17 18  2  0  0  0  0
 17 50  1  0  0  0  0
 20 21  1  0  0  0  0
 20 47  1  0  0  0  0
 21 22  1  0  0  0  0
 22 23  1  0  0  0  0
 22 46  1  0  0  0  0
 23 24  1  0  0  0  0
 24 25  1  0  0  0  0
 24 43  1  0  0  0  0
 25 26  1  0  0  0  0
 25 30  2  0  0  0  0
 26 27  2  0  0  0  0
 26 42  1  0  0  0  0
 27 28  1  0  0  0  0
 27 34  1  0  0  0  0
 28 33  1  0  0  0  0
 29 28  2  0  0  0  0
 29 32  1  0  0  0  0
 30 29  1  0  0  0  0
 30 31  1  0  0  0  0
 32 56  1  0  0  0  0
 32 57  2  0  0  0  0
 34 35  1  0  0  0  0
 34 41  2  0  0  0  0
 35 36  1  0  0  0  0
 36 37  1  0  0  0  0
 37 38  1  0  0  0  0
 37 40  1  0  0  0  0
 38 39  1  0  0  0  0
 43 44  2  0  0  0  0
 43 45  1  0  0  0  0
 47 48  2  0  0  0  0
 47 49  1  0  0  0  0
 50 51  1  0  0  0  0
 51 52  1  0  0  0  0
 52 53  1  0  0  0  0
 52 54  1  0  0  0  0
 53 55  1  0  0  0  0
 56 58  1  0  0  0  0
 58 59  1  0  0  0  0
 59 60  1  0  0  0  0
 59 62  1  0  0  0  0
 60 61  1  0  0  0  0
M  END
>  <DATABASE_ID>
DB01249

>  <DATABASE_NAME>
drugbank

>  <SMILES>
CC(=O)N(CC(O)CN(C(C)=O)C1=C(I)C(C(=O)NCC(O)CO)=C(I)C(C(=O)NCC(O)CO)=C1I)C1=C(I)C(C(=O)NCC(O)CO)=C(I)C(C(=O)NCC(O)CO)=C1I

>  <INCHI_IDENTIFIER>
InChI=1S/C35H44I6N6O15/c1-13(52)46(30-26(38)20(32(59)42-3-15(54)9-48)24(36)21(27(30)39)33(60)43-4-16(55)10-49)7-19(58)8-47(14(2)53)31-28(40)22(34(61)44-5-17(56)11-50)25(37)23(29(31)41)35(62)45-6-18(57)12-51/h15-19,48-51,54-58H,3-12H2,1-2H3,(H,42,59)(H,43,60)(H,44,61)(H,45,62)

>  <INCHI_KEY>
NBQNWMBBSKPBAY-UHFFFAOYSA-N

>  <FORMULA>
C35H44I6N6O15

>  <MOLECULAR_WEIGHT>
1550.1819

>  <EXACT_MASS>
1549.713275288

>  <JCHEM_ACCEPTOR_COUNT>
15

>  <JCHEM_ATOM_COUNT>
106

>  <JCHEM_AVERAGE_POLARIZABILITY>
111.5599208837644

>  <JCHEM_BIOAVAILABILITY>
0

>  <JCHEM_DONOR_COUNT>
13

>  <JCHEM_FORMAL_CHARGE>
0

>  <JCHEM_GHOSE_FILTER>
0

>  <JCHEM_IUPAC>
5-{N-[3-(N-{3,5-bis[(2,3-dihydroxypropyl)carbamoyl]-2,4,6-triiodophenyl}acetamido)-2-hydroxypropyl]acetamido}-N1,N3-bis(2,3-dihydroxypropyl)-2,4,6-triiodobenzene-1,3-dicarboxamide

>  <ALOGPS_LOGP>
-2.91

>  <JCHEM_LOGP>
-2.0626308873333334

>  <ALOGPS_LOGS>
-3.92

>  <JCHEM_MDDR_LIKE_RULE>
0

>  <JCHEM_NUMBER_OF_RINGS>
2

>  <JCHEM_PHYSIOLOGICAL_CHARGE>
0

>  <JCHEM_PKA>
11.944537855828374

>  <JCHEM_PKA_STRONGEST_ACIDIC>
11.43394900991981

>  <JCHEM_PKA_STRONGEST_BASIC>
-3.193473073108399

>  <JCHEM_POLAR_SURFACE_AREA>
339.08999999999986

>  <JCHEM_REFRACTIVITY>
277.1618999999999

>  <JCHEM_ROTATABLE_BOND_COUNT>
22

>  <JCHEM_RULE_OF_FIVE>
0

>  <ALOGPS_SOLUBILITY>
1.85e-01 g/l

>  <JCHEM_TRADITIONAL_IUPAC>
iodixanol

>  <JCHEM_VEBER_RULE>
0

>  <DRUGBANK_ID>
DB01249

>  <DRUG_GROUPS>
approved

>  <GENERIC_NAME>
Iodixanol

>  <SYNONYMS>
5,5'-((2-hydroxytrimethylene)bis(acetylimino))bis(N,N'-bis(2,3-dihydroxypropyl)-2,4,6-triiodoisophthalamide); Indixanol; Iodixanol; Iodixanolum

>  <PRODUCTS>
Iodixanol; Visipaque; Visipaque 270; Visipaque 320

>  <INTERNATIONAL_BRANDS>
Visipaque; Visipaque 270; Visipaque 320

$$$$
1247
 OpenBabel05042401512D

 17 18  0  0  0  0  0  0  0  0999 V2000
    3.3809    2.7761    0.0000 O   0  0  0  0  0  0  0  0  0  0  0  0
    4.5079    0.2690    0.0000 O   0  0  0  0  0  0  0  0  0  0  0  0
    3.0790   -0.5560    0.0000 N   0  0  0  0  0  0  0  0  0  0  0  0
    3.0790    0.2690    0.0000 N   0  0  0  0  0  0  0  0  0  0  0  0
    3.1260    1.9915    0.0000 N   0  0  0  0  0  0  0  0  0  0  0  0
    2.3645   -0.9685    0.0000 C   0  0  0  0  0  0  0  0  0  0  0  0
    2.3645   -1.7935    0.0000 C   0  0  0  0  0  0  0  0  0  0  0  0
    3.0790   -2.2060    0.0000 C   0  0  0  0  0  0  0  0  0  0  0  0
    1.6500   -2.2060    0.0000 C   0  0  0  0  0  0  0  0  0  0  0  0
    3.7935    1.5065    0.0000 C   0  0  0  0  0  0  0  0  0  0  0  0
    3.7935    0.6815    0.0000 C   0  0  0  0  0  0  0  0  0  0  0  0
    3.0790   -3.0310    0.0000 C   0  0  0  0  0  0  0  0  0  0  0  0
    1.6500   -3.0310    0.0000 C   0  0  0  0  0  0  0  0  0  0  0  0
    4.4609    1.9915    0.0000 C   0  0  0  0  0  0  0  0  0  0  0  0
    4.2060    2.7761    0.0000 C   0  0  0  0  0  0  0  0  0  0  0  0
    2.3645   -3.4435    0.0000 C   0  0  0  0  0  0  0  0  0  0  0  0
    4.6909    3.4435    0.0000 C   0  0  0  0  0  0  0  0  0  0  0  0
  1  5  1  0  0  0  0
  1 15  1  0  0  0  0
  2 11  2  0  0  0  0
  3  4  1  0  0  0  0
  3  6  1  0  0  0  0
  4 11  1  0  0  0  0
  5 10  2  0  0  0  0
  6  7  1  0  0  0  0
  7  8  2  0  0  0  0
  7  9  1  0  0  0  0
  8 12  1  0  0  0  0
  9 13  2  0  0  0  0
 10 11  1  0  0  0  0
 10 14  1  0  0  0  0
 12 16  2  0  0  0  0
 13 16  1  0  0  0  0
 14 15  2  0  0  0  0
 15 17  1  0  0  0  0
M  END
>  <DATABASE_ID>
DB01247

>  <DATABASE_NAME>
drugbank

>  <SMILES>
CC1=CC(=NO1)C(=O)NNCC1=CC=CC=C1

>  <INCHI_IDENTIFIER>
InChI=1S/C12H13N3O2/c1-9-7-11(15-17-9)12(16)14-13-8-10-5-3-2-4-6-10/h2-7,13H,8H2,1H3,(H,14,16)

>  <INCHI_KEY>
XKFPYPQQHFEXRZ-UHFFFAOYSA-N

>  <FORMULA>
C12H13N3O2

>  <MOLECULAR_WEIGHT>
231.2505

>  <EXACT_MASS>
231.100776675

>  <JCHEM_ACCEPTOR_COUNT>
3

>  <JCHEM_ATOM_COUNT>
30

>  <JCHEM_AVERAGE_NEUTRAL_MICROSPECIES_CHARGE>
-0.00031063821280695984

>  <JCHEM_AVERAGE_POLARIZABILITY>
24.1515381789703

>  <JCHEM_BIOAVAILABILITY>
1

>  <JCHEM_DONOR_COUNT>
2

>  <JCHEM_FORMAL_CHARGE>
0

>  <JCHEM_GHOSE_FILTER>
1

>  <JCHEM_IUPAC>
N'-benzyl-5-methyl-1,2-oxazole-3-carbohydrazide

>  <ALOGPS_LOGP>
1.19

>  <JCHEM_LOGP>
1.4255166486666668

>  <ALOGPS_LOGS>
-3.01

>  <JCHEM_MDDR_LIKE_RULE>
0

>  <JCHEM_NEUTRAL_CHARGE>
0

>  <JCHEM_NUMBER_OF_RINGS>
2

>  <JCHEM_PHYSIOLOGICAL_CHARGE>
0

>  <JCHEM_PKA_STRONGEST_ACIDIC>
10.42147329378685

>  <JCHEM_PKA_STRONGEST_BASIC>
2.8333085985083946

>  <JCHEM_POLAR_SURFACE_AREA>
67.16

>  <JCHEM_REFRACTIVITY>
74.78030000000001

>  <JCHEM_ROTATABLE_BOND_COUNT>
4

>  <JCHEM_RULE_OF_FIVE>
1

>  <ALOGPS_SOLUBILITY>
2.24e-01 g/l

>  <JCHEM_TRADITIONAL_IUPAC>
biotin

>  <JCHEM_VEBER_RULE>
0

>  <DRUGBANK_ID>
DB01247

>  <SECONDARY_ACCESSION_NUMBERS>
APRD00701

>  <DRUG_GROUPS>
approved

>  <GENERIC_NAME>
Isocarboxazid

>  <SYNONYMS>
Isocarboxazid; Isocarboxazida; Isocarboxazide; Isocarboxazidum

>  <PRODUCTS>
Marplan

>  <INTERNATIONAL_BRANDS>
Enerzer; Isocarboxazid

$$$$
975
 OpenBabel05042401512D

 36 39  0  0  0  0  0  0  0  0999 V2000
   10.7229    0.4549    0.0000 O   0  0  0  0  0  0  0  0  0  0  0  0
    9.2844    2.9244    0.0000 O   0  0  0  0  0  0  0  0  0  0  0  0
    3.5220   -2.8734    0.0000 O   0  0  0  0  0  0  0  0  0  0  0  0
    2.0930   -0.3983    0.0000 O   0  0  0  0  0  0  0  0  0  0  0  0
    7.1079   -1.6644    0.0000 N   0  0  0  0  0  0  0  0  0  0  0  0
    5.6655    1.6642    0.0000 N   0  0  0  0  0  0  0  0  0  0  0  0
    7.8650   -0.4155    0.0000 N   0  0  0  0  0  0  0  0  0  0  0  0
    4.9509    0.4267    0.0000 N   0  0  0  0  0  0  0  0  0  0  0  0
    7.1174    0.8678    0.0000 N   0  0  0  0  0  0  0  0  0  0  0  0
    5.6655   -0.8108    0.0000 N   0  0  0  0  0  0  0  0  0  0  0  0
    8.5779    0.8592    0.0000 N   0  0  0  0  0  0  0  0  0  0  0  0
    4.2365   -0.8108    0.0000 N   0  0  0  0  0  0  0  0  0  0  0  0
    6.3887   -2.0686    0.0000 C   0  0  0  0  0  0  0  0  0  0  0  0
    7.8176   -2.0851    0.0000 C   0  0  0  0  0  0  0  0  0  0  0  0
    6.3799    2.0767    0.0000 C   0  0  0  0  0  0  0  0  0  0  0  0
    4.9509    2.0767    0.0000 C   0  0  0  0  0  0  0  0  0  0  0  0
    6.3792   -2.8935    0.0000 C   0  0  0  0  0  0  0  0  0  0  0  0
    7.8081   -2.9101    0.0000 C   0  0  0  0  0  0  0  0  0  0  0  0
    6.3799    2.9018    0.0000 C   0  0  0  0  0  0  0  0  0  0  0  0
    4.9509    2.9018    0.0000 C   0  0  0  0  0  0  0  0  0  0  0  0
    7.0888   -3.3143    0.0000 C   0  0  0  0  0  0  0  0  0  0  0  0
    5.6655    3.3143    0.0000 C   0  0  0  0  0  0  0  0  0  0  0  0
    7.1174   -0.8394    0.0000 C   0  0  0  0  0  0  0  0  0  0  0  0
    5.6655    0.8392    0.0000 C   0  0  0  0  0  0  0  0  0  0  0  0
    6.3799    0.4267    0.0000 C   0  0  0  0  0  0  0  0  0  0  0  0
    6.3799   -0.3983    0.0000 C   0  0  0  0  0  0  0  0  0  0  0  0
    7.8650    0.4439    0.0000 C   0  0  0  0  0  0  0  0  0  0  0  0
    4.9509   -0.3983    0.0000 C   0  0  0  0  0  0  0  0  0  0  0  0
    9.2939    0.4494    0.0000 C   0  0  0  0  0  0  0  0  0  0  0  0
    8.5747    1.6842    0.0000 C   0  0  0  0  0  0  0  0  0  0  0  0
    4.2365   -1.6358    0.0000 C   0  0  0  0  0  0  0  0  0  0  0  0
    3.5220   -0.3983    0.0000 C   0  0  0  0  0  0  0  0  0  0  0  0
   10.0068    0.8647    0.0000 C   0  0  0  0  0  0  0  0  0  0  0  0
    9.2876    2.0994    0.0000 C   0  0  0  0  0  0  0  0  0  0  0  0
    3.5220   -2.0484    0.0000 C   0  0  0  0  0  0  0  0  0  0  0  0
    2.8075   -0.8108    0.0000 C   0  0  0  0  0  0  0  0  0  0  0  0
  1 33  1  0  0  0  0
  2 34  1  0  0  0  0
  3 35  1  0  0  0  0
  4 36  1  0  0  0  0
  5 13  1  0  0  0  0
  5 14  1  0  0  0  0
  5 23  1  0  0  0  0
  6 15  1  0  0  0  0
  6 16  1  0  0  0  0
  6 24  1  0  0  0  0
  7 23  2  0  0  0  0
  7 27  1  0  0  0  0
  8 24  2  0  0  0  0
  8 28  1  0  0  0  0
  9 25  1  0  0  0  0
  9 27  2  0  0  0  0
 10 26  1  0  0  0  0
 10 28  2  0  0  0  0
 11 27  1  0  0  0  0
 11 29  1  0  0  0  0
 11 30  1  0  0  0  0
 12 28  1  0  0  0  0
 12 31  1  0  0  0  0
 12 32  1  0  0  0  0
 13 17  1  0  0  0  0
 14 18  1  0  0  0  0
 15 19  1  0  0  0  0
 16 20  1  0  0  0  0
 17 21  1  0  0  0  0
 18 21  1  0  0  0  0
 19 22  1  0  0  0  0
 20 22  1  0  0  0  0
 23 26  1  0  0  0  0
 24 25  1  0  0  0  0
 25 26  2  0  0  0  0
 29 33  1  0  0  0  0
 30 34  1  0  0  0  0
 31 35  1  0  0  0  0
 32 36  1  0  0  0  0
M  END
>  <DATABASE_ID>
DB00975

>  <DATABASE_NAME>
drugbank

>  <SMILES>
OCCN(CCO)C1=NC2=C(N=C(N=C2N2CCCCC2)N(CCO)CCO)C(=N1)N1CCCCC1

>  <INCHI_IDENTIFIER>
InChI=1S/C24H40N8O4/c33-15-11-31(12-16-34)23-26-20-19(21(27-23)29-7-3-1-4-8-29)25-24(32(13-17-35)14-18-36)28-22(20)30-9-5-2-6-10-30/h33-36H,1-18H2

>  <INCHI_KEY>
IZEKFCXSFNUWAM-UHFFFAOYSA-N

>  <FORMULA>
C24H40N8O4

>  <MOLECULAR_WEIGHT>
504.6256

>  <EXACT_MASS>
504.317251808

>  <JCHEM_ACCEPTOR_COUNT>
12

>  <JCHEM_ATOM_COUNT>
76

>  <JCHEM_AVERAGE_NEUTRAL_MICROSPECIES_CHARGE>
0.009137813345862571

>  <JCHEM_AVERAGE_POLARIZABILITY>
56.92635212313209

>  <JCHEM_BIOAVAILABILITY>
0

>  <JCHEM_DONOR_COUNT>
4

>  <JCHEM_FORMAL_CHARGE>
0

>  <JCHEM_GHOSE_FILTER>
0

>  <JCHEM_IUPAC>
2-({6-[bis(2-hydroxyethyl)amino]-4,8-bis(piperidin-1-yl)-[1,3]diazino[5,4-d]pyrimidin-2-yl}(2-hydroxyethyl)amino)ethan-1-ol

>  <ALOGPS_LOGP>
1.52

>  <JCHEM_LOGP>
1.8063892579999996

>  <ALOGPS_LOGS>
-2.74

>  <JCHEM_MDDR_LIKE_RULE>
1

>  <JCHEM_NEUTRAL_CHARGE>
0

>  <JCHEM_NUMBER_OF_RINGS>
4

>  <JCHEM_PHYSIOLOGICAL_CHARGE>
0

>  <JCHEM_PKA>
15.397674874733832

>  <JCHEM_PKA_STRONGEST_ACIDIC>
14.971635373079284

>  <JCHEM_PKA_STRONGEST_BASIC>
3.5410932251516574

>  <JCHEM_POLAR_SURFACE_AREA>
145.44

>  <JCHEM_REFRACTIVITY>
142.77939999999998

>  <JCHEM_ROTATABLE_BOND_COUNT>
12

>  <JCHEM_RULE_OF_FIVE>
0

>  <ALOGPS_SOLUBILITY>
9.22e-01 g/l

>  <JCHEM_TRADITIONAL_IUPAC>
biotin

>  <JCHEM_VEBER_RULE>
0

>  <DRUGBANK_ID>
DB00975

>  <SECONDARY_ACCESSION_NUMBERS>
APRD00360

>  <DRUG_GROUPS>
approved

>  <GENERIC_NAME>
Dipyridamole

>  <SYNONYMS>
Dipiridamol; Dipyridamine; Dipyridamole; Dipyridamolum; Dipyudamine; Dypyridamol

>  <PRODUCTS>
Aggrenox; Apo-dipyridamole; Apo-dipyridamole-SC Tab 25mg; Apo-dipyridamole-SC Tab 50mg; Apo-dipyridamole-SC Tab 75mg; Asasantine Cap; Aspirin and Dipyridamole; Aspirin and Dipyridamole Extended Release; Aspirin and Extended - Release Dipyridamole Capsules, 25 mg / 200 mg; Aspirin and Extended-Release Dipyridamole; Aspirin and Extended-release Dipyridamole; Aspirin-dipyridamole; Asprin and Extended-release Dipyridamole; Dipyridamole; Dipyridamole 25 Tab 25mg; Dipyridamole 50 Tab 50mg; Dipyridamole 75 Tab; Dipyridamole Injection, USP; Dipyridamole for Injection; Dipyridamole-25; Dipyridamole-50; Dipyridamole-75; Novo-dipiradol Sct 100mg; Novo-dipiradol Tab 25mg; Novo-dipiradol Tab 50mg; Novo-dipiradol Tab 75mg; Persantine; Persantine Tab 100mg; Persantine Tab 25mg; Persantine Tab 50mg; Persantine Tab 75mg; Taro-dipyridamole/ Asa

>  <INTERNATIONAL_BRANDS>
Agilease; Cardoxin; Cleridium 150; Curantyl; Persantin

$$$$
[NO NAME]
 OpenBabel05042401512D
Created with ChemWriter - http://chemwriter.com
 34 35  0  0  0  0  0  0  0  0999 V2000
    3.8861    1.4562    0.0000 C   0  0  0  0  0  0  0  0  0  0  0  0
    4.6006    1.8687    0.0000 N   0  0  0  0  0  0  0  0  0  0  0  0
    5.3151    1.4562    0.0000 C   0  0  0  0  0  0  0  0  0  0  0  0
    5.3151    0.6312    0.0000 N   0  0  0  0  0  0  0  0  0  0  0  0
    6.0296    1.8687    0.0000 N   0  0  0  0  0  0  0  0  0  0  0  0
    6.7440    1.4562    0.0000 C   0  0  0  0  0  0  0  0  0  0  0  0
    6.7440    0.6312    0.0000 N   0  0  0  0  0  0  0  0  0  0  0  0
    7.4585    1.8687    0.0000 N   0  0  0  0  0  0  0  0  0  0  0  0
    8.1730    1.4562    0.0000 C   0  0  0  0  0  0  0  0  0  0  0  0
    8.8752    1.8893    0.0000 C   0  0  0  0  0  0  0  0  0  0  0  0
    8.1969    0.6316    0.0000 C   0  0  0  0  0  0  0  0  0  0  0  0
    8.9231    0.2400    0.0000 C   0  0  0  0  0  0  0  0  0  0  0  0
    9.6013    1.4978    0.0000 C   0  0  0  0  0  0  0  0  0  0  0  0
    9.6253    0.6731    0.0000 C   0  0  0  0  0  0  0  0  0  0  0  0
   10.3397    0.2606    0.0000 Cl  0  0  0  0  0  0  0  0  0  0  0  0
    3.8861    0.6312    0.0000 C   0  0  0  0  0  0  0  0  0  0  0  0
    3.1716    0.2187    0.0000 C   0  0  0  0  0  0  0  0  0  0  0  0
    3.1716   -0.6063    0.0000 C   0  0  0  0  0  0  0  0  0  0  0  0
    3.8861   -1.0188    0.0000 C   0  0  0  0  0  0  0  0  0  0  0  0
    3.8861   -1.8438    0.0000 C   0  0  0  0  0  0  0  0  0  0  0  0
    4.6006   -2.2563    0.0000 N   0  0  0  0  0  0  0  0  0  0  0  0
    5.3150   -1.8438    0.0000 C   0  0  0  0  0  0  0  0  0  0  0  0
    5.3150   -1.0188    0.0000 N   0  0  0  0  0  0  0  0  0  0  0  0
    6.0295   -2.2563    0.0000 N   0  0  0  0  0  0  0  0  0  0  0  0
    6.7440   -1.8438    0.0000 C   0  0  0  0  0  0  0  0  0  0  0  0
    6.7440   -1.0188    0.0000 N   0  0  0  0  0  0  0  0  0  0  0  0
    7.4585   -2.2563    0.0000 N   0  0  0  0  0  0  0  0  0  0  0  0
    8.1729   -1.8438    0.0000 C   0  0  0  0  0  0  0  0  0  0  0  0
    8.8874   -0.6063    0.0000 C   0  0  0  0  0  0  0  0  0  0  0  0
    8.1729   -1.0188    0.0000 C   0  0  0  0  0  0  0  0  0  0  0  0
    8.8874   -2.2563    0.0000 C   0  0  0  0  0  0  0  0  0  0  0  0
    9.6019   -1.8438    0.0000 C   0  0  0  0  0  0  0  0  0  0  0  0
    9.6019   -1.0188    0.0000 C   0  0  0  0  0  0  0  0  0  0  0  0
   10.3163   -0.6063    0.0000 Cl  0  0  0  0  0  0  0  0  0  0  0  0
  1  2  1  0  0  0  0
  1 16  1  0  0  0  0
  2  3  1  0  0  0  0
  3  5  1  0  0  0  0
  3  4  2  0  0  0  0
  5  6  1  0  0  0  0
  6  8  1  0  0  0  0
  6  7  2  0  0  0  0
  8  9  1  0  0  0  0
  9 11  1  0  0  0  0
 10  9  2  0  0  0  0
 10 13  1  0  0  0  0
 11 12  2  0  0  0  0
 12 14  1  0  0  0  0
 14 13  2  0  0  0  0
 14 15  1  0  0  0  0
 16 17  1  0  0  0  0
 17 18  1  0  0  0  0
 18 19  1  0  0  0  0
 19 20  1  0  0  0  0
 20 21  1  0  0  0  0
 21 22  1  0  0  0  0
 22 23  2  0  0  0  0
 22 24  1  0  0  0  0
 24 25  1  0  0  0  0
 25 26  2  0  0  0  0
 25 27  1  0  0  0  0
 27 28  1  0  0  0  0
 28 31  1  0  0  0  0
 29 30  1  0  0  0  0
 29 33  2  0  0  0  0
 30 28  2  0  0  0  0
 31 32  2  0  0  0  0
 32 33  1  0  0  0  0
 33 34  1  0  0  0  0
M  END
>  <DATABASE_ID>
DB00878

>  <DATABASE_NAME>
drugbank

>  <SMILES>
ClC1=CC=C(NC(=N)NC(=N)NCCCCCCNC(=N)NC(=N)NC2=CC=C(Cl)C=C2)C=C1

>  <INCHI_IDENTIFIER>
InChI=1S/C22H30Cl2N10/c23-15-5-9-17(10-6-15)31-21(27)33-19(25)29-13-3-1-2-4-14-30-20(26)34-22(28)32-18-11-7-16(24)8-12-18/h5-12H,1-4,13-14H2,(H5,25,27,29,31,33)(H5,26,28,30,32,34)

>  <INCHI_KEY>
GHXZTYHSJHQHIJ-UHFFFAOYSA-N

>  <FORMULA>
C22H30Cl2N10

>  <MOLECULAR_WEIGHT>
505.447

>  <EXACT_MASS>
504.203196424

>  <JCHEM_ACCEPTOR_COUNT>
10

>  <JCHEM_ATOM_COUNT>
64

>  <JCHEM_AVERAGE_NEUTRAL_MICROSPECIES_CHARGE>
3.7501797394834875

>  <JCHEM_AVERAGE_POLARIZABILITY>
54.58213081067789

>  <JCHEM_BIOAVAILABILITY>
0

>  <JCHEM_DONOR_COUNT>
10

>  <JCHEM_FORMAL_CHARGE>
0

>  <JCHEM_GHOSE_FILTER>
0

>  <JCHEM_IUPAC>
N-(4-chlorophenyl)-1-{N'-[6-(N-{[N'-(4-chlorophenyl)carbamimidamido]methanimidoyl}amino)hexyl]carbamimidamido}methanimidamide

>  <ALOGPS_LOGP>
2.71

>  <JCHEM_LOGP>
4.510369177333333

>  <ALOGPS_LOGS>
-4.29

>  <JCHEM_MDDR_LIKE_RULE>
0

>  <JCHEM_NEUTRAL_CHARGE>
4

>  <JCHEM_NUMBER_OF_RINGS>
2

>  <JCHEM_PHYSIOLOGICAL_CHARGE>
4

>  <JCHEM_PKA_STRONGEST_BASIC>
10.516535504977844

>  <JCHEM_POLAR_SURFACE_AREA>
167.58

>  <JCHEM_REFRACTIVITY>
181.71459999999993

>  <JCHEM_ROTATABLE_BOND_COUNT>
9

>  <JCHEM_RULE_OF_FIVE>
0

>  <ALOGPS_SOLUBILITY>
2.61e-02 g/l

>  <JCHEM_TRADITIONAL_IUPAC>
tetrahydrofolic acid

>  <JCHEM_VEBER_RULE>
0

>  <DRUGBANK_ID>
DB00878

>  <SECONDARY_ACCESSION_NUMBERS>
APRD00545

>  <DRUG_GROUPS>
approved; vet_approved; withdrawn

>  <GENERIC_NAME>
Chlorhexidine

>  <SYNONYMS>
1,1'-Hexamethylene bis(5-(p-chlorophenyl)biguanide); Chlorhexidin; Chlorhexidine; Chlorhexidinum; Cloresidina; Clorhexidina; N,N'-Bis(4-chlorophenyl)-3,12-diimino-2,4,11,13-tetraazatetradecanediimidamide

>  <PRODUCTS>
(Fruli) Quick-Dry Disposable Hand Sanitizer; (Qiqing) Chlorhexidine Gluconate Alcohol Disinfectant; 3M Avagard; 3M SoluPrep; 3M SoluPrep S; 3m Soluprep Sponge; Acclean Chlorhexidine Gluconate 0.12% Oral Rinse; Akilgeld Hand Sanitizer; Akilspray Hand Sanitizer; Alcohol Antibacterial Wipes; Alcohol Disinfectant Wipes; Anti Mucedine Feminine Wash; Anti-bac Hand; Antibacterial Protective Hand; Antimicrobial Foam Handwash; Antimicrobial Skin Cleanser; Antiseptic Body Cleanser; Antiseptic Cleanser Solution; Antiseptic Cleansing Wipes; Antiseptic First Aid Spray; Antiseptic Foam Handwash; Antiseptic Lotion Soap 2%; Antiseptic Skin Cleanser; Antiseptic Skin Cleanser Exidine-2 CHG; Antiseptic Solution; Aplicare Antiseptic Chlorhexidine Gluconate; Aplicare Chlorhexidine Gluconate 2% Solution; Avagard Chg; Avidene Surgical Scrub; B-good Hand and Skin Disinfecting Agent; BD E-Z Scrub; BD E-Z Scrub 107; Bacti-stat Chg; Bactigras; Bactoshield; Bactoshield CHG; Bactoshield CHG Chlorhexidine Gluconate; Bactoshield CHG Chlorhexidine Gluconate Solution; Bactoshield Chg 2%; Bactoshield Chg 4%; Baxedin; Baxedin 2% - 70%; Baxedin Liq 20%; Baxedin Pre-OP; Bei Ling Tong Bao Er Zheng Yuan Antibacterial Creams; Betasept; Bioprep; Bioprep Liq; Burn O Sol Spray; CLIP Liquid Sanitizer; Calgon Vestal 2% Chg Antimicrob.skin Cleans.; Calgon Vestal 4% Chg Antimicrob.skin Cleans.; Cardinal Health; Cardinal Health Antiseptic Skin Cleanser; Chinese Herb Essence Bacteriostatic Feminine Wash; Chlora-cleanze; ChloraPrep One-Step; Chloraprep; Chloraprep Liq 0.5%; Chloraprep Swabsticks; Chlorhexidine; Chlorhexidine 0.5% Liq; Chlorhexidine 2% Antiseptic Hand Wash; Chlorhexidine 4% Antiseptic Hand Wash; Chlorhexidine Alcohol Free; Chlorhexidine Gluconante; Chlorhexidine Gluconate; Chlorhexidine Gluconate 0.12% Oral Rinse; Chlorhexidine Gluconate 0.12% Oral Rinse, USP; Chlorhexidine Gluconate Applicator; Chlorhexidine Gluconate Oral Rinse; Chlorhexidine Gluconate Solution 0.05%; Chlorhexidine Gluconate Solution 0.75% Antiseptic; Chlorhexidine Gluconate Solution USP 20%; Chlorhexidine Gluconate, 0.12% Oral Rinse; Chlorhexidine Gluconate, 0.12% Oral Rinse Solution; Chlorhexidine Liq 0.05%; Chlorhexidine Solution; Chlorhexidine and Isopropyl Alcohol Prep Pads; Chlorhexidine and Isopropyl Alcohol Swabsticks; Chlorhexidine gluconate; Chlorhexidine-cetrimide Soltn Conc; Chlorhexseptic-liq 0.5mg/ml; Cida-stat Foam; Cida-stat Liq; CleanCare Chlorhexidine Gluconate 0.12% Oral Rinse; CliniClean; DASH Chlorhexidine Gluconate 0.12% Oral Rinse; DEQGEL Advanced Hand Sanitizer; Denti-Care Denti-Rinse Chlorhexidine Gluconate Oral Rinse; Denticare Chlorhexidine Gluconate Oral Rinse 0.12%; DermacinRx Clorhexacin; DermacinRx Surgical ComboPak; DermacinRx Surgical PharmaPak; Dermawerx Surgical Plus Pak; Dermawerx Surgical PrePak; Dermsafe Chlorhexidine Gluconate Hand Sanitizer Lotion; Dermsafe Pc; Dexidin 0.5 Solution; Dexidin 2 Detergent; Dexidin 2 Solution; Dexidin 20; Dexidin Liq 4%; Disinfectant Fabric Wash; Disinfectant Spray(Speedy effect type); Disinfectant Wet Tissues; Dr. Dean; Dr. Luke Molluscum Wart Remover; Dr. Luke Wart Remover; Dr. Zheng s acteriostatic gel; Dyna-Hex 2; Dyna-Hex 4; Dyna-Hex 75; Dyna-hex 2; Dyna-hex 4; E-Z Scrub 107; E-Z Scrub 747 4%; E-Z Scrub Antimicrobial Foam Solution Containing 4% Chg; Endure 400 Scrub-Stat 4; Endure 420 Cida-Stat; Euro-chlorhexidine; Eyewash Station Additive Concentrate; Ezy-TM; First Aid Antiseptic Skin Cleanser; Flamazine C; Foam Care Chg Surgical Hand Scrub; Foam Safe; Foaming Chlorhexidine Gluconate; Foaming Hand Antiseptic With Chg 2%; Foaming Hand Wash; Foster and Thrive; Freeman Packing Alcohol Wipe; Gelato Chlorohexidine; Germi Stat Gel 2%; Germi Stat Gel 4%; Germi-stat 0.5% Antiseptic Prep Gel; Germi-stat 2% Foaming Liquid; Germi-stat Prep Gel; Gum Paroex; Hand Sanitizer; Hand Sanitizer Biokaab; Hand Sanitizer Gel Biokaab; Hand Wipes; Hand wipes; HandSoap; Hands-free skin sanitizer; Henry Schein Antimicrobial Skin Cleanser; Hexicinide; Hexifoam-skin Disinfectant Aer 1%; Hexirex Antiseptic Skin Cleanser; Hibiclens; Hibiclens Antiseptic/antimicrobial Skin Cleanser; Hibiclens for Georgia Pacific; Hibidil; Hibistat; Hibistat Germicidal Hand Rinse; Hibitane Skin Cleanser; Hibitane Skin Cleanser 2%; Hibitane Skin Cleanser 4%; Hibitane Skin Cleanser Liq 4%; Hospicare 40R Adult Body Wipes; Hygenipak 2% Chg Foaming Skin Cleanser; Hygenipak 2% Chg Skin Cleanser; Hygienipak 4% Chg Foaming Skin Cleanser; Hygienipak 4% Chg Skin Cleanser; Hygienium; ICEKING Skin Expert Refreshing Body Roller; Ic-gel; Instillagel; JIANLIANG Antibacterial Sprays 10mL; Jisberry Hand Sanitizer; KIMVENT ORAL CARE Q4 Kit WITH CHG; Kimvent Oral Care Q2 Kit with CHG; KleerSight; LARA MED Antibacterial Wet Wipes; Laura Line Antibacterial Cream Soap 2%; Laura Line Chlorhexidine Antiseptic Soap; Liquivida Hydration; Liszt Hand sanitizer without washing; Loris - I.V.; Loris 2% Chg Body Cleanser/nettoyant Pour Le Corps; Loris 2% Chg Solution; Loris 2% Chg Wipe/serviette; Loris I.V. Pro - Prefilled Applicator With Solution; Loris I.V. Pro - Sponge; Loris I.V. Pro - Swabstick; Major Oral Rinse; Maxiclens Chlorhexidine Gluconate Liquid Solution, 4%; Maxiclens Chlorhexidine gluconate Liquid Solution, 4%; Medifresh Hand Skin Antiseptic Disinfectant Wet Wipes; Microban Medical; Motherwort Herb Feminine Antibacterial Gels; NUPRO Chlorhexidine Gluconate; Noble 75% Alcohol Wipes; NuSurgePak Surgical Prep/CarePak; Oral Cleansing and Suctioning System, q2; Oral Cleansing and Suctioning System, q4; Oris Chx; Oro Clear; Oro-clense; Oronine H Ointment 1%; Ostar Antimicrobial Hand Soap 2% - Liquid; PS1 Aciurgy Pack; PS2 Aciurgy Pack; Paroex; Perichlor; Perichlor Without Alcohol; Peridex; Peridex Oral Rinse; Peridex Oral Rinse 0.12%; PerioChip; Periogard; Periogard (Chlorhexidine Gluconate); Periogard Alcohol Free; Perioselect Antimicrobial Sol 0.12%; PhysiciansCare Eyewash Station Additive Concentrate; Plant Herb Based Bacteriostatic Feminine Wash; Pre and Post Sx Pouch; Pre-Scrub II Surgical Hand Scrub; Pre-moistened Towelette; Prevantics Maxi Swabstick; Prevantics Swab; Prevantics Swabstick; Prevantics swabstick; Prevora Stage 1; Pro-dentx Chlorhexidene Oral Rinse; Protective Hand; Provon Antimicrobial Foam Handwash; Provon Antiseptic Lotion Soap With 2% Chg; Purell Antimicrobial Foam; Purell Antimicrobial Foam Handwash 2% Chg; Purell CS Foam Handwash 2% CHG; Purmist; Q2 Oral Care Kit with CHG; QCare Rx Oral Cleansing and Suctioning System; QCare Rx Oral Cleansing and Suctioning System, Q2; QCare Rx Oral Cleansing and Suctioning System, Q4; QCare Rx Petite Oral Cleansing and Suctioning System; Quick-Drying Hand Sanitizer; Quick-drying rinse-free hand skin disinfectant; ReadyPrep CHG; Rougier Clean Derm; Rougier Vap-chlorhexidine Gluconate 2% W/V; Rouhex G 20%; Rouhex G 4%; Rouhex G Liq 2%; Rugby Antiseptic Skin Cleanser; SAITENM Health Wet wipes; SANIDEP Advanced Sanitizer with Organic Extracts; Salvesept Crm; Sanital Antibacterial Hand Soap; Savlodil; Savlon Hospital Concentrate; Scrub; Scrub Care; Scrub Care Exidine -4 CHG; Scrub Care Exidine-2 CHG; Scrub Care Surgical Scrub Brush/nail Cleaner With Exidine 4; Scrub Stat 4 Foam Liq; Scrub, Scrub-Stat; Scrub, Scrub-Stat, Foam Safe, Micro-Guard; Scrub-Stat; Scrub-stat IV 4%; Seaqua X; Selpak Antibacterial Wet Wipes; Septi-san; Serdaen; Skin Antisepsis, Oral Cleansing and Nasal Antisepsis System; Skin antisepsis, oral cleansing, nasal antisepsis; Skinvisible Chlorhexidine Formula Hand Sanitizer Lotion; Sky Oral Rinse; Smart San CHG; Smart Sense Antiseptic Skin Cleanser; Soft Care 2% Chg Antimicrobial Skin Cleanser; Soft Care Antiseptic Hand Soap; Solunet C Brosse 4%; Soluprep; Soluprep AQ; Soluprep AQ Applicator; Soluprep AQ Sponge; Soluprep AQ Swab; Soluprep AQ Wipe; Soluprep Antiseptic Skin Cleanser Preoperative Kit; Soluprep Antiseptic Skin Cleanser Sponge; Soluprep Applicator; Soluprep Ld Sponge; Soluprep Qd Solution; Soluprep Qd Swab; Soluprep Qd Wipe; Soluprep Swab; Soluprep Wipe; Spectro Gram 2 Skin Cleanser; Spectro Tar Antiseptic Shampoo; Spray On Plastic Bandage Aerosol; Spray On Plastic Bandage Non-aerosol; Stanhexidine 2% With Isopropyl Alcohol 4%; Stanhexidine 20%; Stanhexidine 4% With Isopropyl Alcohol 4%; Stanhexidine Aqueous 2% With 4% Isopropyl Alcohol; Stanhexidine Red Tincture 0.5%; Stat Touch 2 Antimicrobial Skin Cleanser; Steri-clean; Steri-stat Liq 2.0%; Steri-stat Liq 20%; Steri-stat Liq 4.0%; Steri-stat Tincture (tinted) Antis Prep Gel; Sterigel Plus; Sterixin 0.05%; Sunberry Rinse free Hand Sanitizer; Surgical Continuum System; Surgical and healthcare personnel hand antiseptic with moisturizers; Tai Yu Ling Antibacterial Sprays 10mL; Ultrastat; Wart Removal Pen; Wart Remover Ointment.; Wart removal; WhyteDerm SurgiPak; X-pur Chlorhexidine; Yu Ding Antibacterial Sprays 10mL; Zappy Ultimate Antiseptic Wipes; Zedoary Oils Feminine Antibacterial Gels

>  <INTERNATIONAL_BRANDS>
Cida-Stat; Corsodyl; DentiSept; Dyna-Hex; Exidine; Hexadol; Hibiscrub; Hibitane; Microderm; Periogard Oral Rinse; Pharmaseal Scrub Care; Prevacare R; Rotersept; Sterilon; Tubulicid

>  <SALTS>
Chlorhexidine acetate; Chlorhexidine gluconate; Chlorhexidine hydrochloride

$$$$

 OpenBabel05042401512D

 31 34  0  0  0  0  0  0  0  0999 V2000
    3.5724    1.2375    0.0000 C   0  0  0  0  0  0  0  0  0  0  0  0
    3.5724    2.0625    0.0000 C   0  0  0  0  0  0  0  0  0  0  0  0
    0.7145   -0.4125    0.0000 C   0  0  0  0  0  0  0  0  0  0  0  0
    2.8579    0.8250    0.0000 C   0  0  0  0  0  0  0  0  0  0  0  0
    1.4289   -0.0000    0.0000 C   0  0  0  0  0  0  0  0  0  0  0  0
    2.8579    2.4750    0.0000 C   0  0  0  0  0  0  0  0  0  0  0  0
   -0.7145    2.0625    0.0000 C   0  0  0  0  0  0  0  0  0  0  0  0
    0.0000    2.4750    0.0000 C   0  0  0  0  0  0  0  0  0  0  0  0
    0.7145   -1.2375    0.0000 C   0  0  0  0  0  0  0  0  0  0  0  0
   -0.7145   -1.2375    0.0000 C   0  0  0  0  0  0  0  0  0  0  0  0
   -0.0000   -2.4750    0.0000 C   0  0  0  0  0  0  0  0  0  0  0  0
   -1.4289   -1.6500    0.0000 C   0  0  0  0  0  0  0  0  0  0  0  0
   -0.7145   -2.8875    0.0000 C   0  0  0  0  0  0  0  0  0  0  0  0
   -2.1434   -2.8875    0.0000 C   0  0  0  0  0  0  0  0  0  0  0  0
   -2.8579   -2.4750    0.0000 C   0  0  0  0  0  0  0  0  0  0  0  0
   -0.0000    0.8250    0.0000 C   0  0  0  0  0  0  0  0  0  0  0  0
   -0.7145    1.2375    0.0000 C   0  0  0  0  0  0  0  0  0  0  0  0
    1.4289    0.8250    0.0000 C   0  0  0  0  0  0  0  0  0  0  0  0
    2.1434    1.2375    0.0000 C   0  0  0  0  0  0  0  0  0  0  0  0
    0.7145    1.2375    0.0000 C   0  0  0  0  0  0  0  0  0  0  0  0
    2.1434    2.0625    0.0000 C   0  0  0  0  0  0  0  0  0  0  0  0
    0.7145    2.0625    0.0000 C   0  0  0  0  0  0  0  0  0  0  0  0
   -1.4289    0.8250    0.0000 C   0  0  0  0  0  0  0  0  0  0  0  0
   -2.1434    0.4125    0.0000 F   0  0  0  0  0  0  0  0  0  0  0  0
   -1.0164    0.1105    0.0000 F   0  0  0  0  0  0  0  0  0  0  0  0
   -1.8414    1.5395    0.0000 F   0  0  0  0  0  0  0  0  0  0  0  0
   -0.0000   -1.6500    0.0000 N   0  0  0  0  0  0  0  0  0  0  0  0
   -1.4289   -2.4750    0.0000 N   0  0  0  0  0  0  0  0  0  0  0  0
   -3.5724   -2.8875    0.0000 O   0  0  0  0  0  0  0  0  0  0  0  0
    1.4289    2.4750    0.0000 S   0  0  0  0  0  0  0  0  0  0  0  0
    2.1434   -0.4125    0.0000 H   0  0  0  0  0  0  0  0  0  0  0  0
  2  1  2  0  0  0  0
  4  1  1  0  0  0  0
  5  3  1  0  0  0  0
  6  2  1  0  0  0  0
  8  7  2  0  0  0  0
  9  3  1  0  0  0  0
 12 10  1  0  0  0  0
 13 11  1  0  0  0  0
 15 14  1  0  0  0  0
 17  7  1  0  0  0  0
 17 16  2  0  0  0  0
 18  5  2  0  0  0  0
 19  4  2  0  0  0  0
 19 18  1  0  0  0  0
 20 16  1  0  0  0  0
 20 18  1  0  0  0  0
 21  6  2  0  0  0  0
 21 19  1  0  0  0  0
 22  8  1  0  0  0  0
 22 20  2  0  0  0  0
 23 17  1  0  0  0  0
 24 23  1  0  0  0  0
 25 23  1  0  0  0  0
 26 23  1  0  0  0  0
 27  9  1  0  0  0  0
 27 10  1  0  0  0  0
 27 11  1  0  0  0  0
 28 12  1  0  0  0  0
 28 13  1  0  0  0  0
 28 14  1  0  0  0  0
 29 15  1  0  0  0  0
 30 21  1  0  0  0  0
 30 22  1  0  0  0  0
 31  5  1  0  0  0  0
M  END
>  <DATABASE_ID>
DB00875

>  <DATABASE_NAME>
drugbank

>  <SMILES>
[H]\C(CCN1CCN(CCO)CC1)=C1/C2=CC=CC=C2SC2=C1C=C(C=C2)C(F)(F)F

>  <INCHI_IDENTIFIER>
InChI=1S/C23H25F3N2OS/c24-23(25,26)17-7-8-22-20(16-17)18(19-4-1-2-6-21(19)30-22)5-3-9-27-10-12-28(13-11-27)14-15-29/h1-2,4-8,16,29H,3,9-15H2/b18-5-

>  <INCHI_KEY>
NJMYODHXAKYRHW-DVZOWYKESA-N

>  <FORMULA>
C23H25F3N2OS

>  <MOLECULAR_WEIGHT>
434.52

>  <EXACT_MASS>
434.163969096

>  <JCHEM_ACCEPTOR_COUNT>
3

>  <JCHEM_ATOM_COUNT>
55

>  <JCHEM_AVERAGE_POLARIZABILITY>
44.78942344013997

>  <JCHEM_BIOAVAILABILITY>
1

>  <JCHEM_DONOR_COUNT>
1

>  <JCHEM_FORMAL_CHARGE>
0

>  <JCHEM_GHOSE_FILTER>
1

>  <JCHEM_IUPAC>
2-(4-{3-[(9Z)-2-(trifluoromethyl)-9H-thioxanthen-9-ylidene]propyl}piperazin-1-yl)ethan-1-ol

>  <ALOGPS_LOGP>
4.56

>  <JCHEM_LOGP>
4.496787735333333

>  <ALOGPS_LOGS>
-5.04

>  <JCHEM_MDDR_LIKE_RULE>
1

>  <JCHEM_NUMBER_OF_RINGS>
4

>  <JCHEM_PHYSIOLOGICAL_CHARGE>
1

>  <JCHEM_PKA_STRONGEST_ACIDIC>
15.593098171378148

>  <JCHEM_PKA_STRONGEST_BASIC>
8.428423544962852

>  <JCHEM_POLAR_SURFACE_AREA>
26.71

>  <JCHEM_REFRACTIVITY>
128.16920000000002

>  <JCHEM_ROTATABLE_BOND_COUNT>
6

>  <JCHEM_RULE_OF_FIVE>
1

>  <ALOGPS_SOLUBILITY>
3.99e-03 g/l

>  <JCHEM_TRADITIONAL_IUPAC>
α-flupenthixol

>  <JCHEM_VEBER_RULE>
1

>  <DRUGBANK_ID>
DB00875

>  <SECONDARY_ACCESSION_NUMBERS>
APRD00388

>  <DRUG_GROUPS>
approved; investigational; withdrawn

>  <GENERIC_NAME>
Flupentixol

>  <SYNONYMS>
Flupenthixol; Flupenthixole; Flupentixol; Flupentixolo; Flupentixolum

>  <PRODUCTS>
Fluanxol 0.5mg - Tab; Fluanxol 3mg - Tab; Fluanxol Depot 10%- Liq Im 100mg/ml; Fluanxol Depot 2% -liq Im 20mg/ml; Fluanxol Depot Inj 100mg/ml; Fluanxol Depot Inj 20mg/ml; Fluanxol Tab 0.5mg; Fluanxol Tab 3mg; Flupentixol Decanoate Injection BP

>  <INTERNATIONAL_BRANDS>
Depixol; Fluanxol; Jexit

>  <SALTS>
Flupentixol decanoate; Flupentixol dihydrochloride

$$$$
772
 OpenBabel05042401512D

 19 18  0  0  1  0  0  0  0  0999 V2000
    3.7935    1.3481    0.0000 S   0  0  0  0  0  0  0  0  0  0  0  0
    3.4916    0.2210    0.0000 S   0  0  0  0  0  0  0  0  0  0  0  0
    3.0791    0.9356    0.0000 P   0  0  0  0  0  0  0  0  0  0  0  0
    5.9370    0.9356    0.0000 O   0  0  0  0  0  0  0  0  0  0  0  0
    5.2224   -1.1270    0.0000 O   0  0  0  0  0  0  0  0  0  0  0  0
    2.3645    0.5231    0.0000 O   0  0  0  0  0  0  0  0  0  0  0  0
    2.6665    1.6500    0.0000 O   0  0  0  0  0  0  0  0  0  0  0  0
    5.2224    2.1731    0.0000 O   0  0  0  0  0  0  0  0  0  0  0  0
    5.9370    0.1106    0.0000 O   0  0  0  0  0  0  0  0  0  0  0  0
    4.5080    0.9356    0.0000 C   0  0  3  0  0  0  0  0  0  0  0  0
    4.5080    0.1106    0.0000 C   0  0  0  0  0  0  0  0  0  0  0  0
    5.2224    1.3481    0.0000 C   0  0  0  0  0  0  0  0  0  0  0  0
    5.2224   -0.3020    0.0000 C   0  0  0  0  0  0  0  0  0  0  0  0
    6.6515    1.3481    0.0000 C   0  0  0  0  0  0  0  0  0  0  0  0
    5.9370   -1.5395    0.0000 C   0  0  0  0  0  0  0  0  0  0  0  0
    7.3659    0.9356    0.0000 C   0  0  0  0  0  0  0  0  0  0  0  0
    5.9370   -2.3645    0.0000 C   0  0  0  0  0  0  0  0  0  0  0  0
    1.6500    0.9356    0.0000 C   0  0  0  0  0  0  0  0  0  0  0  0
    3.0791    2.3645    0.0000 C   0  0  0  0  0  0  0  0  0  0  0  0
  1  3  1  0  0  0  0
  1 10  1  0  0  0  0
  2  3  2  0  0  0  0
  3  6  1  0  0  0  0
  3  7  1  0  0  0  0
  4 12  1  0  0  0  0
  4 14  1  0  0  0  0
  5 13  1  0  0  0  0
  5 15  1  0  0  0  0
  6 18  1  0  0  0  0
  7 19  1  0  0  0  0
  8 12  2  0  0  0  0
  9 13  2  0  0  0  0
 10 11  1  0  0  0  0
 10 12  1  0  0  0  0
 11 13  1  0  0  0  0
 14 16  1  0  0  0  0
 15 17  1  0  0  0  0
M  END
>  <DATABASE_ID>
DB00772

>  <DATABASE_NAME>
drugbank

>  <SMILES>
CCOC(=O)CC(SP(=S)(OC)OC)C(=O)OCC

>  <INCHI_IDENTIFIER>
InChI=1S/C10H19O6PS2/c1-5-15-9(11)7-8(10(12)16-6-2)19-17(18,13-3)14-4/h8H,5-7H2,1-4H3

>  <INCHI_KEY>
JXSJBGJIGXNWCI-UHFFFAOYSA-N

>  <FORMULA>
C10H19O6PS2

>  <MOLECULAR_WEIGHT>
330.358

>  <EXACT_MASS>
330.036066232

>  <JCHEM_ACCEPTOR_COUNT>
2

>  <JCHEM_ATOM_COUNT>
38

>  <JCHEM_AVERAGE_NEUTRAL_MICROSPECIES_CHARGE>
-7.460860703066102e-13

>  <JCHEM_AVERAGE_POLARIZABILITY>
31.65672482536084

>  <JCHEM_BIOAVAILABILITY>
1

>  <JCHEM_DONOR_COUNT>
0

>  <JCHEM_FORMAL_CHARGE>
0

>  <JCHEM_GHOSE_FILTER>
1

>  <JCHEM_IUPAC>
1,4-diethyl 2-{[dimethoxy(sulfanylidene)-lambda5-phosphanyl]sulfanyl}butanedioate

>  <ALOGPS_LOGP>
2.67

>  <JCHEM_LOGP>
1.8572832056666668

>  <ALOGPS_LOGS>
-3.30

>  <JCHEM_MDDR_LIKE_RULE>
0

>  <JCHEM_NEUTRAL_CHARGE>
0

>  <JCHEM_NUMBER_OF_RINGS>
0

>  <JCHEM_PHYSIOLOGICAL_CHARGE>
0

>  <JCHEM_PKA_STRONGEST_BASIC>
-6.821451036028483

>  <JCHEM_POLAR_SURFACE_AREA>
71.06

>  <JCHEM_REFRACTIVITY>
78.1823

>  <JCHEM_ROTATABLE_BOND_COUNT>
11

>  <JCHEM_RULE_OF_FIVE>
1

>  <ALOGPS_SOLUBILITY>
1.65e-01 g/l

>  <JCHEM_TRADITIONAL_IUPAC>
tetrahydrofolic acid

>  <JCHEM_VEBER_RULE>
0

>  <DRUGBANK_ID>
DB00772

>  <SECONDARY_ACCESSION_NUMBERS>
APRD01081

>  <DRUG_GROUPS>
approved; investigational

>  <GENERIC_NAME>
Malathion

>  <SYNONYMS>
[(dimethoxyphosphinothioyl)thio]butanedioic acid diethyl ester; Carbophos; diethyl (dimethoxyphosphinothioylthio)succinate; Karbofos; Malathion; Maldison; Mercaptothion; O,O-dimethyl S-(1,2-bis(ethoxycarbonyl)ethyl); O,O-dimethyl S-(1,2-dicarbethoxyethyl) dithiophosphate; O,O-dimethyl S-(1,2-dicarbethoxyethyl)phosphorodithioate; O,O-dimethyl S-1,2-di(ethoxycarbamyl)ethyl; O,O-dimethyldithiophosphate diethylmercaptosuccinate

>  <PRODUCTS>
Malathion; Malathion lotion, 0.5%; Ovide

>  <INTERNATIONAL_BRANDS>
Derbac-M; Noury; Prioderm

$$$$
744
 OpenBabel05042401512D

 16 17  0  0  1  0  0  0  0  0999 V2000
    3.8597    1.1874    0.0000 S   0  0  0  0  0  0  0  0  0  0  0  0
    5.1662   -0.9055    0.0000 O   0  0  0  0  0  0  0  0  0  0  0  0
    6.8162    0.5235    0.0000 O   0  0  0  0  0  0  0  0  0  0  0  0
    5.5787   -0.1910    0.0000 N   0  0  0  0  0  0  0  0  0  0  0  0
    6.8162   -0.9055    0.0000 N   0  0  0  0  0  0  0  0  0  0  0  0
    5.1662    0.5235    0.0000 C   0  0  3  0  0  0  0  0  0  0  0  0
    4.3412    0.5235    0.0000 C   0  0  0  0  0  0  0  0  0  0  0  0
    3.0791    0.1110    0.0000 C   0  0  0  0  0  0  0  0  0  0  0  0
    3.8597   -0.1404    0.0000 C   0  0  0  0  0  0  0  0  0  0  0  0
    3.0791    0.9360    0.0000 C   0  0  0  0  0  0  0  0  0  0  0  0
    5.5787    1.2379    0.0000 C   0  0  0  0  0  0  0  0  0  0  0  0
    2.3645   -0.3015    0.0000 C   0  0  0  0  0  0  0  0  0  0  0  0
    2.3645    1.3485    0.0000 C   0  0  0  0  0  0  0  0  0  0  0  0
    1.6500    0.1110    0.0000 C   0  0  0  0  0  0  0  0  0  0  0  0
    1.6500    0.9360    0.0000 C   0  0  0  0  0  0  0  0  0  0  0  0
    6.4037   -0.1910    0.0000 C   0  0  0  0  0  0  0  0  0  0  0  0
  1  7  1  0  0  0  0
  1 10  1  0  0  0  0
  2  4  1  0  0  0  0
  3 16  2  0  0  0  0
  4  6  1  0  0  0  0
  4 16  1  0  0  0  0
  5 16  1  0  0  0  0
  6  7  1  0  0  0  0
  6 11  1  0  0  0  0
  7  9  2  0  0  0  0
  8  9  1  0  0  0  0
  8 10  1  0  0  0  0
  8 12  2  0  0  0  0
 10 13  2  0  0  0  0
 12 14  1  0  0  0  0
 13 15  1  0  0  0  0
 14 15  2  0  0  0  0
M  END
>  <DATABASE_ID>
DB00744

>  <DATABASE_NAME>
drugbank

>  <SMILES>
CC(N(O)C(N)=O)C1=CC2=CC=CC=C2S1

>  <INCHI_IDENTIFIER>
InChI=1S/C11H12N2O2S/c1-7(13(15)11(12)14)10-6-8-4-2-3-5-9(8)16-10/h2-7,15H,1H3,(H2,12,14)

>  <INCHI_KEY>
MWLSOWXNZPKENC-UHFFFAOYSA-N

>  <FORMULA>
C11H12N2O2S

>  <MOLECULAR_WEIGHT>
236.29

>  <EXACT_MASS>
236.061948328

>  <JCHEM_ACCEPTOR_COUNT>
2

>  <JCHEM_ATOM_COUNT>
28

>  <JCHEM_AVERAGE_NEUTRAL_MICROSPECIES_CHARGE>
-0.014320312643828458

>  <JCHEM_AVERAGE_POLARIZABILITY>
24.137720482183898

>  <JCHEM_BIOAVAILABILITY>
1

>  <JCHEM_DONOR_COUNT>
2

>  <JCHEM_FORMAL_CHARGE>
0

>  <JCHEM_GHOSE_FILTER>
1

>  <JCHEM_IUPAC>
1-[1-(1-benzothiophen-2-yl)ethyl]-1-hydroxyurea

>  <ALOGPS_LOGP>
2.01

>  <JCHEM_LOGP>
2.006172834999999

>  <ALOGPS_LOGS>
-3.64

>  <JCHEM_MDDR_LIKE_RULE>
0

>  <JCHEM_NEUTRAL_CHARGE>
0

>  <JCHEM_NUMBER_OF_RINGS>
2

>  <JCHEM_PHYSIOLOGICAL_CHARGE>
0

>  <JCHEM_PKA_STRONGEST_ACIDIC>
8.83778309271064

>  <JCHEM_PKA_STRONGEST_BASIC>
-5.494153581458329

>  <JCHEM_POLAR_SURFACE_AREA>
66.56

>  <JCHEM_REFRACTIVITY>
61.95950000000001

>  <JCHEM_ROTATABLE_BOND_COUNT>
2

>  <JCHEM_RULE_OF_FIVE>
1

>  <ALOGPS_SOLUBILITY>
5.39e-02 g/l

>  <JCHEM_TRADITIONAL_IUPAC>
tetrahydrofolic acid

>  <JCHEM_VEBER_RULE>
0

>  <DRUGBANK_ID>
DB00744

>  <SECONDARY_ACCESSION_NUMBERS>
APRD00265

>  <DRUG_GROUPS>
approved; investigational; withdrawn

>  <GENERIC_NAME>
Zileuton

>  <SYNONYMS>
(±)-1-(1-Benzo[b]thien-2-ylethyl)-1-hydroxyurea; Leutrol; N-(1-Benzo(b)thien-2-ylethyl)-N-hydroxyurea; N-[1-(benzo[b]thiophen-2-yl)ethyl]-N-hydroxyurea; Zileuton; Zileutón; Zileutonum

>  <PRODUCTS>
Zileuton; Zyflo; Zyflo CR

$$$$
686
 OpenBabel05042401512D

 35 36  0  0  1  0  0  0  0  0999 V2000
    4.2365    1.2375    0.0000 S   0  0  0  0  0  0  0  0  0  0  0  0
    8.5234    1.2375    0.0000 S   0  0  0  0  0  0  0  0  0  0  0  0
    9.9524   -0.4125    0.0000 S   0  0  0  0  0  0  0  0  0  0  0  0
    2.8075   -0.4125    0.0000 S   0  0  0  0  0  0  0  0  0  0  0  0
    6.3799    0.0000    0.0000 O   0  0  0  0  0  0  0  0  0  0  0  0
    7.0944   -1.2375    0.0000 O   0  0  0  0  0  0  0  0  0  0  0  0
    4.9509   -1.6500    0.0000 O   0  0  0  0  0  0  0  0  0  0  0  0
    4.9509    0.8250    0.0000 O   0  0  0  0  0  0  0  0  0  0  0  0
    7.8089    0.8250    0.0000 O   0  0  0  0  0  0  0  0  0  0  0  0
    9.2379    0.0000    0.0000 O   0  0  0  0  0  0  0  0  0  0  0  0
    3.5220    0.0000    0.0000 O   0  0  0  0  0  0  0  0  0  0  0  0
    9.2379   -1.6500    0.0000 O   0  0  0  0  0  0  0  0  0  0  0  0
    3.5220   -1.6500    0.0000 O   0  0  0  0  0  0  0  0  0  0  0  0
    3.5220    1.6500    0.0000 O   0  0  0  0  0  0  0  0  0  0  0  0
    9.2379    1.6500    0.0000 O   0  0  0  0  0  0  0  0  0  0  0  0
   10.6668   -0.8250    0.0000 O   0  0  0  0  0  0  0  0  0  0  0  0
    2.0930   -0.8250    0.0000 O   0  0  0  0  0  0  0  0  0  0  0  0
    3.8240    0.5231    0.0000 O   0  0  0  0  0  0  0  0  0  0  0  0
    4.6490    1.9520    0.0000 O   0  0  0  0  0  0  0  0  0  0  0  0
    8.9359    0.5231    0.0000 O   0  0  0  0  0  0  0  0  0  0  0  0
    8.1109    1.9520    0.0000 O   0  0  0  0  0  0  0  0  0  0  0  0
   10.3649    0.3020    0.0000 O   0  0  0  0  0  0  0  0  0  0  0  0
    9.5398   -1.1270    0.0000 O   0  0  0  0  0  0  0  0  0  0  0  0
    2.3950    0.3020    0.0000 O   0  0  0  0  0  0  0  0  0  0  0  0
    3.2200   -1.1270    0.0000 O   0  0  0  0  0  0  0  0  0  0  0  0
    5.6655   -0.4125    0.0000 C   0  0  1  0  0  0  0  0  0  0  0  0
    4.9509    0.0000    0.0000 C   0  0  1  0  0  0  0  0  0  0  0  0
    7.8089    0.0000    0.0000 C   0  0  1  0  0  0  0  0  0  0  0  0
    7.0944   -0.4125    0.0000 C   0  0  2  0  0  0  0  0  0  0  0  0
    8.5234   -0.4125    0.0000 C   0  0  2  0  0  0  0  0  0  0  0  0
    4.2365   -0.4125    0.0000 C   0  0  2  0  0  0  0  0  0  0  0  0
    8.5234   -1.2375    0.0000 C   0  0  1  0  0  0  0  0  0  0  0  0
    5.6655   -1.2375    0.0000 C   0  0  0  0  0  0  0  0  0  0  0  0
    4.2365   -1.2375    0.0000 C   0  0  1  0  0  0  0  0  0  0  0  0
    7.8089   -1.6500    0.0000 C   0  0  0  0  0  0  0  0  0  0  0  0
  1  8  1  0  0  0  0
  1 14  1  0  0  0  0
  1 18  2  0  0  0  0
  1 19  2  0  0  0  0
  2  9  1  0  0  0  0
  2 15  1  0  0  0  0
  2 20  2  0  0  0  0
  2 21  2  0  0  0  0
  3 10  1  0  0  0  0
  3 16  1  0  0  0  0
  3 22  2  0  0  0  0
  3 23  2  0  0  0  0
  4 11  1  0  0  0  0
  4 17  1  0  0  0  0
  4 24  2  0  0  0  0
  4 25  2  0  0  0  0
  6 29  1  0  0  0  0
  6 35  1  0  0  0  0
  7 33  1  0  0  0  0
  7 34  1  0  0  0  0
 26  5  1  6  0  0  0
 26 27  1  0  0  0  0
 26 33  1  0  0  0  0
 27  8  1  1  0  0  0
 27 31  1  0  0  0  0
 28  9  1  6  0  0  0
 28 29  1  0  0  0  0
 28 30  1  0  0  0  0
 29  5  1  1  0  0  0
 30 10  1  1  0  0  0
 30 32  1  0  0  0  0
 31 11  1  6  0  0  0
 31 34  1  0  0  0  0
 32 12  1  6  0  0  0
 32 35  1  0  0  0  0
 34 13  1  1  0  0  0
M  END
>  <DATABASE_ID>
DB00686

>  <DATABASE_NAME>
drugbank

>  <SMILES>
O[C@@H]1CO[C@@H](O[C@@H]2CO[C@@H](O)[C@H](OS(O)(=O)=O)[C@H]2OS(O)(=O)=O)[C@H](OS(O)(=O)=O)[C@H]1OS(O)(=O)=O

>  <INCHI_IDENTIFIER>
InChI=1S/C10H18O21S4/c11-3-1-26-10(8(31-35(22,23)24)5(3)28-32(13,14)15)27-4-2-25-9(12)7(30-34(19,20)21)6(4)29-33(16,17)18/h3-12H,1-2H2,(H,13,14,15)(H,16,17,18)(H,19,20,21)(H,22,23,24)/t3-,4-,5+,6+,7-,8-,9-,10+/m1/s1

>  <INCHI_KEY>
FCCNSUIJIOOXEZ-SJYYZXOBSA-N

>  <FORMULA>
C10H18O21S4

>  <MOLECULAR_WEIGHT>
602.497

>  <EXACT_MASS>
601.922340398

>  <JCHEM_ACCEPTOR_COUNT>
17

>  <JCHEM_ATOM_COUNT>
53

>  <JCHEM_AVERAGE_NEUTRAL_MICROSPECIES_CHARGE>
-4.000049178368999

>  <JCHEM_AVERAGE_POLARIZABILITY>
46.21671253251486

>  <JCHEM_BIOAVAILABILITY>
0

>  <JCHEM_DONOR_COUNT>
6

>  <JCHEM_FORMAL_CHARGE>
0

>  <JCHEM_GHOSE_FILTER>
0

>  <JCHEM_IUPAC>
[(2S,3R,4S,5R)-5-hydroxy-2-{[(3R,4S,5R,6R)-6-hydroxy-4,5-bis(sulfooxy)oxan-3-yl]oxy}-4-(sulfooxy)oxan-3-yl]oxidanesulfonic acid

>  <ALOGPS_LOGP>
-2.49

>  <JCHEM_LOGP>
-11.39932632632439

>  <ALOGPS_LOGS>
-2.24

>  <JCHEM_MDDR_LIKE_RULE>
0

>  <JCHEM_NEUTRAL_CHARGE>
-4

>  <JCHEM_NUMBER_OF_RINGS>
2

>  <JCHEM_PHYSIOLOGICAL_CHARGE>
-4

>  <JCHEM_PKA>
-2.507463501728266

>  <JCHEM_PKA_STRONGEST_ACIDIC>
-2.9445776264001253

>  <JCHEM_PKA_STRONGEST_BASIC>
-3.562709641250119

>  <JCHEM_POLAR_SURFACE_AREA>
322.54999999999995

>  <JCHEM_REFRACTIVITY>
96.37889999999997

>  <JCHEM_ROTATABLE_BOND_COUNT>
10

>  <JCHEM_RULE_OF_FIVE>
0

>  <ALOGPS_SOLUBILITY>
3.49e+00 g/l

>  <JCHEM_TRADITIONAL_IUPAC>
tetrahydrofolic acid

>  <JCHEM_VEBER_RULE>
0

>  <DRUGBANK_ID>
DB00686

>  <SECONDARY_ACCESSION_NUMBERS>
APRD01175

>  <DRUG_GROUPS>
approved

>  <GENERIC_NAME>
Pentosan polysulfate

>  <SYNONYMS>
Pentosan polysulfate; Pentosan sulfuric polyester; Pentosane polysulfate; Pentosani polysulfas; Pentosano polisulfato; Pentosanpolysulfat

>  <PRODUCTS>
Elmiron

>  <INTERNATIONAL_BRANDS>
Comfora; Fibrase; Fibrezym; Hemoclar; Hémoclar; Tavan-SP; Thrombocid

>  <SALTS>
Calcium pentosan polysulfate; Pentosan polysulfate sodium

$$$$
623
 OpenBabel05042401512D

 30 33  0  0  0  0  0  0  0  0999 V2000
    5.9361   -3.5410    0.0000 S   0  0  0  0  0  0  0  0  0  0  0  0
    8.4328   -1.1584    0.0000 F   0  0  0  0  0  0  0  0  0  0  0  0
    9.2631   -2.5840    0.0000 F   0  0  0  0  0  0  0  0  0  0  0  0
    9.5608   -1.4561    0.0000 F   0  0  0  0  0  0  0  0  0  0  0  0
    1.6498    3.0581    0.0000 O   0  0  0  0  0  0  0  0  0  0  0  0
    4.5073    0.5834    0.0000 N   0  0  0  0  0  0  0  0  0  0  0  0
    3.0786    1.4083    0.0000 N   0  0  0  0  0  0  0  0  0  0  0  0
    5.9361   -1.8912    0.0000 N   0  0  0  0  0  0  0  0  0  0  0  0
    3.7929    0.1710    0.0000 C   0  0  0  0  0  0  0  0  0  0  0  0
    4.5073    1.4083    0.0000 C   0  0  0  0  0  0  0  0  0  0  0  0
    3.0786    0.5834    0.0000 C   0  0  0  0  0  0  0  0  0  0  0  0
    3.7929    1.8208    0.0000 C   0  0  0  0  0  0  0  0  0  0  0  0
    5.2216    0.1710    0.0000 C   0  0  0  0  0  0  0  0  0  0  0  0
    5.2216   -0.6539    0.0000 C   0  0  0  0  0  0  0  0  0  0  0  0
    2.3641    1.8208    0.0000 C   0  0  0  0  0  0  0  0  0  0  0  0
    5.9361   -1.0664    0.0000 C   0  0  0  0  0  0  0  0  0  0  0  0
    2.3641    2.6456    0.0000 C   0  0  0  0  0  0  0  0  0  0  0  0
    6.6504   -2.3037    0.0000 C   0  0  0  0  0  0  0  0  0  0  0  0
    5.2216   -2.3037    0.0000 C   0  0  0  0  0  0  0  0  0  0  0  0
    6.6504   -3.1286    0.0000 C   0  0  0  0  0  0  0  0  0  0  0  0
    5.2216   -3.1286    0.0000 C   0  0  0  0  0  0  0  0  0  0  0  0
    7.3878   -1.8626    0.0000 C   0  0  0  0  0  0  0  0  0  0  0  0
    4.4843   -1.8626    0.0000 C   0  0  0  0  0  0  0  0  0  0  0  0
    8.1352   -2.2865    0.0000 C   0  0  0  0  0  0  0  0  0  0  0  0
    7.3878   -3.5695    0.0000 C   0  0  0  0  0  0  0  0  0  0  0  0
    4.4843   -3.5695    0.0000 C   0  0  0  0  0  0  0  0  0  0  0  0
    8.1352   -3.1457    0.0000 C   0  0  0  0  0  0  0  0  0  0  0  0
    3.7368   -2.2865    0.0000 C   0  0  0  0  0  0  0  0  0  0  0  0
    3.7368   -3.1457    0.0000 C   0  0  0  0  0  0  0  0  0  0  0  0
    8.8480   -1.8712    0.0000 C   0  0  0  0  0  0  0  0  0  0  0  0
  1 20  1  0  0  0  0
  1 21  1  0  0  0  0
  2 30  1  0  0  0  0
  3 30  1  0  0  0  0
  4 30  1  0  0  0  0
  5 17  1  0  0  0  0
  6  9  1  0  0  0  0
  6 10  1  0  0  0  0
  6 13  1  0  0  0  0
  7 11  1  0  0  0  0
  7 12  1  0  0  0  0
  7 15  1  0  0  0  0
  8 16  1  0  0  0  0
  8 18  1  0  0  0  0
  8 19  1  0  0  0  0
  9 11  1  0  0  0  0
 10 12  1  0  0  0  0
 13 14  1  0  0  0  0
 14 16  1  0  0  0  0
 15 17  1  0  0  0  0
 18 20  2  0  0  0  0
 18 22  1  0  0  0  0
 19 21  1  0  0  0  0
 19 23  2  0  0  0  0
 20 25  1  0  0  0  0
 21 26  2  0  0  0  0
 22 24  2  0  0  0  0
 23 28  1  0  0  0  0
 24 27  1  0  0  0  0
 24 30  1  0  0  0  0
 25 27  2  0  0  0  0
 26 29  1  0  0  0  0
 28 29  2  0  0  0  0
M  END
>  <DATABASE_ID>
DB00623

>  <DATABASE_NAME>
drugbank

>  <SMILES>
OCCN1CCN(CCCN2C3=CC=CC=C3SC3=C2C=C(C=C3)C(F)(F)F)CC1

>  <INCHI_IDENTIFIER>
InChI=1S/C22H26F3N3OS/c23-22(24,25)17-6-7-21-19(16-17)28(18-4-1-2-5-20(18)30-21)9-3-8-26-10-12-27(13-11-26)14-15-29/h1-2,4-7,16,29H,3,8-15H2

>  <INCHI_KEY>
PLDUPXSUYLZYBN-UHFFFAOYSA-N

>  <FORMULA>
C22H26F3N3OS

>  <MOLECULAR_WEIGHT>
437.522

>  <EXACT_MASS>
437.174867774

>  <JCHEM_ACCEPTOR_COUNT>
4

>  <JCHEM_ATOM_COUNT>
56

>  <JCHEM_AVERAGE_NEUTRAL_MICROSPECIES_CHARGE>
0.8662797517690142

>  <JCHEM_AVERAGE_POLARIZABILITY>
44.91856261417957

>  <JCHEM_BIOAVAILABILITY>
1

>  <JCHEM_DONOR_COUNT>
1

>  <JCHEM_FORMAL_CHARGE>
0

>  <JCHEM_GHOSE_FILTER>
1

>  <JCHEM_IUPAC>
2-(4-{3-[2-(trifluoromethyl)-10H-phenothiazin-10-yl]propyl}piperazin-1-yl)ethan-1-ol

>  <ALOGPS_LOGP>
4.40

>  <JCHEM_LOGP>
3.965821614666666

>  <ALOGPS_LOGS>
-4.36

>  <JCHEM_MDDR_LIKE_RULE>
1

>  <JCHEM_NEUTRAL_CHARGE>
1

>  <JCHEM_NUMBER_OF_RINGS>
4

>  <JCHEM_PHYSIOLOGICAL_CHARGE>
1

>  <JCHEM_PKA_STRONGEST_ACIDIC>
15.593097818121176

>  <JCHEM_PKA_STRONGEST_BASIC>
7.811428251633431

>  <JCHEM_POLAR_SURFACE_AREA>
29.950000000000003

>  <JCHEM_REFRACTIVITY>
117.26760000000002

>  <JCHEM_ROTATABLE_BOND_COUNT>
7

>  <JCHEM_RULE_OF_FIVE>
1

>  <ALOGPS_SOLUBILITY>
1.90e-02 g/l

>  <JCHEM_TRADITIONAL_IUPAC>
tetrahydrofolic acid

>  <JCHEM_VEBER_RULE>
1

>  <DRUGBANK_ID>
DB00623

>  <SECONDARY_ACCESSION_NUMBERS>
APRD00633

>  <DRUG_GROUPS>
approved

>  <GENERIC_NAME>
Fluphenazine

>  <SYNONYMS>
1-(2-hydroxyethyl)-4-(3-(trifluoromethyl-10-phenothiazinyl)propyl)-piperazine; 10-(3-(2-hydroxyethyl)piperazinopropyl)-2-(trifluoromethyl)phenothiazine; 10-(3'-(4''-(β-hydroxyethyl)-1''-piperazinyl)-propyl)-3-trifluoromethylphenothiazine; 2-(4-(3-[2-(trifluoromethyl)-10H-phenothiazin-10-yl]propyl)-1-piperazinyl)ethanol; 2-(trifluoromethyl)-10-(3-(1-(β-hydroxyethyl)-4-piperazinyl)propyl)phenothiazine; 4-(3-(-trifluoromethyl-10-phenothiazyl)-propyl)-1-piperazineethanol; 4-(3-(2-(trifluoromethyl)-10H-phenothiazin-10-yl)propyl)-1-piperazineethanol; 4-(3-(2-trifluoromethyl-10-phenothiazyl)-propyl)-1-piperazineethanol; Flufenazina; Fluorfenazine; Fluorophenazine; Fluorphenazine; Fluphenazin; Fluphénazine; Fluphenazine; Fluphenazinum; Triflumethazine

>  <PRODUCTS>
Apo Fluphenazine Tab 2.5mg; Apo-fluphenazine Injectable; Fluphenazine; Fluphenazine 1 Tab 1mg; Fluphenazine 2 Tab 2mg; Fluphenazine 5 Tab 5mg; Fluphenazine Decanoate; Fluphenazine Decanoate Injection B.P.; Fluphenazine Decanoate Injection, USP; Fluphenazine Hydrochloride; Fluphenazine Omega; Fluphenazine decanoate; Fluphenazine hydrochloride; Modecate Concentrate; Modecate Inj 25mg/ml; Moditen Enanthate Inj 25mg/ml; Moditen HCl Tab 10mg; PMS Fluphenazine Tab 1mg; PMS Fluphenazine Tab 2mg; PMS Fluphenazine Tab 5mg; PMS-fluphenazine Decanoate; PMS-fluphenazine Decanoate Inj (bp) 25mg/ml; PMS-fluphenazine Elixir 0.5mg/ml; Prolixin; Prolixin Decanoate; Rho-fluphenazine Decanoate Inj-25mg/ml Im Sc; Rho-fluphenazine Decanoate Inj.conc-100mg/ml

>  <INTERNATIONAL_BRANDS>
Anatensol; Dapotum D; Fludecasin; Fludecate; Flumezin; Funazine; Lyogen; Lyogen Depot; Lyogen Retard; Metoten; Modecate; Moditen; Moditen Depo; Permitil

>  <SALTS>
Fluphenazine decanoate; Fluphenazine enanthate; Fluphenazine hydrochloride

$$$$
547
 OpenBabel05042401512D

 29 32  0  0  1  0  0  0  0  0999 V2000
    4.1400    0.0373    0.0000 F   0  0  0  0  0  0  0  0  0  0  0  0
    3.9559    0.6428    0.0000 O   0  0  0  0  0  0  0  0  0  0  0  0
    6.5853    1.8799    0.0000 O   0  0  0  0  0  0  0  0  0  0  0  0
    8.1998    2.2203    0.0000 O   0  0  0  0  0  0  0  0  0  0  0  0
    1.6500   -2.2879    0.0000 O   0  0  0  0  0  0  0  0  0  0  0  0
    6.0994    0.2303    0.0000 C   0  0  1  0  0  0  0  0  0  0  0  0
    6.0994   -0.5947    0.0000 C   0  0  2  0  0  0  0  0  0  0  0  0
    5.3849   -1.0072    0.0000 C   0  0  1  0  0  0  0  0  0  0  0  0
    4.6704   -0.5947    0.0000 C   0  0  1  0  0  0  0  0  0  0  0  0
    6.8800    0.4817    0.0000 C   0  0  2  0  0  0  0  0  0  0  0  0
    6.8800   -0.8461    0.0000 C   0  0  0  0  0  0  0  0  0  0  0  0
    5.3849    0.6428    0.0000 C   0  0  0  0  0  0  0  0  0  0  0  0
    7.3614   -0.1822    0.0000 C   0  0  1  0  0  0  0  0  0  0  0  0
    4.6704    0.2303    0.0000 C   0  0  2  0  0  0  0  0  0  0  0  0
    3.9196   -1.0129    0.0000 C   0  0  1  0  0  0  0  0  0  0  0  0
    5.3981   -1.8664    0.0000 C   0  0  0  0  0  0  0  0  0  0  0  0
    6.0994    1.0553    0.0000 C   0  0  0  0  0  0  0  0  0  0  0  0
    4.6572   -2.3019    0.0000 C   0  0  0  0  0  0  0  0  0  0  0  0
    3.9130   -1.8722    0.0000 C   0  0  0  0  0  0  0  0  0  0  0  0
    7.1363    1.2659    0.0000 C   0  0  0  0  0  0  0  0  0  0  0  0
    8.1865   -0.1822    0.0000 C   0  0  0  0  0  0  0  0  0  0  0  0
    3.6435   -0.2355    0.0000 C   0  0  0  0  0  0  0  0  0  0  0  0
    3.1550   -0.5475    0.0000 C   0  0  0  0  0  0  0  0  0  0  0  0
    3.1413   -2.3257    0.0000 C   0  0  0  0  0  0  0  0  0  0  0  0
    7.9436    1.4360    0.0000 C   0  0  0  0  0  0  0  0  0  0  0  0
    2.3730   -0.9830    0.0000 C   0  0  0  0  0  0  0  0  0  0  0  0
    2.3660   -1.8781    0.0000 C   0  0  0  0  0  0  0  0  0  0  0  0
    6.1691   -1.2510    0.0000 H   0  0  0  0  0  0  0  0  0  0  0  0
    5.9589   -1.3328    0.0000 H   0  0  0  0  0  0  0  0  0  0  0  0
  3 20  2  0  0  0  0
  4 25  1  0  0  0  0
  5 27  2  0  0  0  0
  6  7  1  0  0  0  0
  6 10  1  0  0  0  0
  6 12  1  0  0  0  0
  6 17  1  1  0  0  0
  7  8  1  0  0  0  0
  7 11  1  0  0  0  0
  7 28  1  6  0  0  0
  8  9  1  0  0  0  0
  8 16  1  0  0  0  0
  8 29  1  1  0  0  0
  9  1  1  6  0  0  0
  9 14  1  0  0  0  0
  9 15  1  0  0  0  0
 10 13  1  0  0  0  0
 10 20  1  1  0  0  0
 11 13  1  0  0  0  0
 12 14  1  0  0  0  0
 13 21  1  6  0  0  0
 14  2  1  1  0  0  0
 15 19  1  0  0  0  0
 15 22  1  1  0  0  0
 15 23  1  0  0  0  0
 16 18  1  0  0  0  0
 18 19  1  0  0  0  0
 19 24  2  0  0  0  0
 20 25  1  0  0  0  0
 23 26  2  0  0  0  0
 24 27  1  0  0  0  0
 26 27  1  0  0  0  0
M  END
>  <DATABASE_ID>
DB00547

>  <DATABASE_NAME>
drugbank

>  <SMILES>
[H][C@@]12C[C@@H](C)[C@H](C(=O)CO)[C@@]1(C)C[C@H](O)[C@@]1(F)[C@@]2([H])CCC2=CC(=O)C=C[C@]12C

>  <INCHI_IDENTIFIER>
InChI=1S/C22H29FO4/c1-12-8-16-15-5-4-13-9-14(25)6-7-21(13,3)22(15,23)18(27)10-20(16,2)19(12)17(26)11-24/h6-7,9,12,15-16,18-19,24,27H,4-5,8,10-11H2,1-3H3/t12-,15+,16+,18+,19-,20+,21+,22+/m1/s1

>  <INCHI_KEY>
VWVSBHGCDBMOOT-IIEHVVJPSA-N

>  <FORMULA>
C22H29FO4

>  <MOLECULAR_WEIGHT>
376.4617

>  <EXACT_MASS>
376.204987621

>  <JCHEM_ACCEPTOR_COUNT>
4

>  <JCHEM_ATOM_COUNT>
56

>  <JCHEM_AVERAGE_NEUTRAL_MICROSPECIES_CHARGE>
-4.480005396573591e-07

>  <JCHEM_AVERAGE_POLARIZABILITY>
40.116652950421354

>  <JCHEM_BIOAVAILABILITY>
1

>  <JCHEM_DONOR_COUNT>
2

>  <JCHEM_FORMAL_CHARGE>
0

>  <JCHEM_GHOSE_FILTER>
1

>  <JCHEM_IUPAC>
(1S,2R,3aS,3bS,9aS,9bR,10S,11aS)-9b-fluoro-10-hydroxy-1-(2-hydroxyacetyl)-2,9a,11a-trimethyl-1H,2H,3H,3aH,3bH,4H,5H,7H,9aH,9bH,10H,11H,11aH-cyclopenta[a]phenanthren-7-one

>  <ALOGPS_LOGP>
2.13

>  <JCHEM_LOGP>
2.3510410726666664

>  <ALOGPS_LOGS>
-4.08

>  <JCHEM_MDDR_LIKE_RULE>
0

>  <JCHEM_NEUTRAL_CHARGE>
0

>  <JCHEM_NUMBER_OF_RINGS>
4

>  <JCHEM_PHYSIOLOGICAL_CHARGE>
0

>  <JCHEM_PKA>
14.069565338786505

>  <JCHEM_PKA_STRONGEST_ACIDIC>
13.44020708325941

>  <JCHEM_PKA_STRONGEST_BASIC>
-3.295502644300164

>  <JCHEM_POLAR_SURFACE_AREA>
74.6

>  <JCHEM_REFRACTIVITY>
101.16989999999998

>  <JCHEM_ROTATABLE_BOND_COUNT>
2

>  <JCHEM_RULE_OF_FIVE>
1

>  <ALOGPS_SOLUBILITY>
3.10e-02 g/l

>  <JCHEM_TRADITIONAL_IUPAC>
biotin

>  <JCHEM_VEBER_RULE>
0

>  <DRUGBANK_ID>
DB00547

>  <SECONDARY_ACCESSION_NUMBERS>
APRD00910

>  <DRUG_GROUPS>
approved

>  <GENERIC_NAME>
Desoximetasone

>  <SYNONYMS>
(11β,16α)-9-fluoro-11,21-dihydroxy-16-methylpregna-1,4-diene-3,20-dione; 9alpha-fluoro-16alpha-methyl-delta(1)-corticosterone; Deoxymethasone; Desoximetason; Desoximetasona; Désoximétasone; Desoximetasone; Desoximetasonum; Desoxymethasone

>  <PRODUCTS>
Desoxi Cream 0.05%; Desoxi Cream 0.25%; Desoxi Gel 0.05%; Desoximetasone; Desoximetasone 0.05% / Hydroquinone 6% / Tretinoin 0.05%; Desoximetasone 0.05% / Niacinamide 4%; Desoximetasone Oint 0.05%; Topicort; Topicort 0.25%; Topicort Crm 2.5mg/gm; Topicort Gel 0.05%; Topicort Mild .05%; Topicort Mild Cream 0.5mg/gm; Topicort Ointment 2.5mg/gm

>  <INTERNATIONAL_BRANDS>
Esperson; Flubason; Topicort LP; Topisolon

$$$$
398
 OpenBabel05042401512D

 32 34  0  0  0  0  0  0  0  0999 V2000
    1.6500    3.0938    0.0000 Cl  0  0  0  0  0  0  0  0  0  0  0  0
    2.2540    3.9188    0.0000 F   0  0  0  0  0  0  0  0  0  0  0  0
    3.9041    3.9188    0.0000 F   0  0  0  0  0  0  0  0  0  0  0  0
    3.0791    4.7439    0.0000 F   0  0  0  0  0  0  0  0  0  0  0  0
    5.2224   -3.0938    0.0000 O   0  0  0  0  0  0  0  0  0  0  0  0
    3.7935    0.2063    0.0000 O   0  0  0  0  0  0  0  0  0  0  0  0
    8.0804   -2.2688    0.0000 O   0  0  0  0  0  0  0  0  0  0  0  0
    4.5080    1.4438    0.0000 N   0  0  0  0  0  0  0  0  0  0  0  0
    5.2224    0.2063    0.0000 N   0  0  0  0  0  0  0  0  0  0  0  0
    7.3659   -4.3313    0.0000 N   0  0  0  0  0  0  0  0  0  0  0  0
    8.7949   -3.5063    0.0000 N   0  0  0  0  0  0  0  0  0  0  0  0
    3.7935    1.8563    0.0000 C   0  0  0  0  0  0  0  0  0  0  0  0
    3.0791    3.0938    0.0000 C   0  0  0  0  0  0  0  0  0  0  0  0
    3.7935    2.6813    0.0000 C   0  0  0  0  0  0  0  0  0  0  0  0
    5.2224   -0.6188    0.0000 C   0  0  0  0  0  0  0  0  0  0  0  0
    3.0791    1.4438    0.0000 C   0  0  0  0  0  0  0  0  0  0  0  0
    5.2224   -2.2688    0.0000 C   0  0  0  0  0  0  0  0  0  0  0  0
    2.3645    2.6813    0.0000 C   0  0  0  0  0  0  0  0  0  0  0  0
    5.9370   -1.0313    0.0000 C   0  0  0  0  0  0  0  0  0  0  0  0
    4.5080   -1.0313    0.0000 C   0  0  0  0  0  0  0  0  0  0  0  0
    2.3645    1.8563    0.0000 C   0  0  0  0  0  0  0  0  0  0  0  0
    5.9370   -1.8563    0.0000 C   0  0  0  0  0  0  0  0  0  0  0  0
    4.5080   -1.8563    0.0000 C   0  0  0  0  0  0  0  0  0  0  0  0
    4.5080    0.6188    0.0000 C   0  0  0  0  0  0  0  0  0  0  0  0
    3.0791    3.9188    0.0000 C   0  0  0  0  0  0  0  0  0  0  0  0
    5.9370   -3.5063    0.0000 C   0  0  0  0  0  0  0  0  0  0  0  0
    6.6515   -3.0938    0.0000 C   0  0  0  0  0  0  0  0  0  0  0  0
    7.3659   -3.5063    0.0000 C   0  0  0  0  0  0  0  0  0  0  0  0
    5.9370   -4.3313    0.0000 C   0  0  0  0  0  0  0  0  0  0  0  0
    6.6515   -4.7439    0.0000 C   0  0  0  0  0  0  0  0  0  0  0  0
    8.0804   -3.0938    0.0000 C   0  0  0  0  0  0  0  0  0  0  0  0
    9.5094   -3.0938    0.0000 C   0  0  0  0  0  0  0  0  0  0  0  0
  1 18  1  0  0  0  0
  2 25  1  0  0  0  0
  3 25  1  0  0  0  0
  4 25  1  0  0  0  0
  5 17  1  0  0  0  0
  5 26  1  0  0  0  0
  6 24  2  0  0  0  0
  7 31  2  0  0  0  0
  8 12  1  0  0  0  0
  8 24  1  0  0  0  0
  9 15  1  0  0  0  0
  9 24  1  0  0  0  0
 10 28  2  0  0  0  0
 10 30  1  0  0  0  0
 11 31  1  0  0  0  0
 11 32  1  0  0  0  0
 12 14  2  0  0  0  0
 12 16  1  0  0  0  0
 13 14  1  0  0  0  0
 13 18  2  0  0  0  0
 13 25  1  0  0  0  0
 15 19  2  0  0  0  0
 15 20  1  0  0  0  0
 16 21  2  0  0  0  0
 17 22  2  0  0  0  0
 17 23  1  0  0  0  0
 18 21  1  0  0  0  0
 19 22  1  0  0  0  0
 20 23  2  0  0  0  0
 26 27  2  0  0  0  0
 26 29  1  0  0  0  0
 27 28  1  0  0  0  0
 28 31  1  0  0  0  0
 29 30  2  0  0  0  0
M  END
>  <DATABASE_ID>
DB00398

>  <DATABASE_NAME>
drugbank

>  <SMILES>
CNC(=O)C1=NC=CC(OC2=CC=C(NC(=O)NC3=CC(=C(Cl)C=C3)C(F)(F)F)C=C2)=C1

>  <INCHI_IDENTIFIER>
InChI=1S/C21H16ClF3N4O3/c1-26-19(30)18-11-15(8-9-27-18)32-14-5-2-12(3-6-14)28-20(31)29-13-4-7-17(22)16(10-13)21(23,24)25/h2-11H,1H3,(H,26,30)(H2,28,29,31)

>  <INCHI_KEY>
MLDQJTXFUGDVEO-UHFFFAOYSA-N

>  <FORMULA>
C21H16ClF3N4O3

>  <MOLECULAR_WEIGHT>
464.825

>  <EXACT_MASS>
464.08630272

>  <JCHEM_ACCEPTOR_COUNT>
3

>  <JCHEM_ATOM_COUNT>
48

>  <JCHEM_AVERAGE_NEUTRAL_MICROSPECIES_CHARGE>
0.0010418670567845607

>  <JCHEM_AVERAGE_POLARIZABILITY>
41.3340061519023

>  <JCHEM_BIOAVAILABILITY>
1

>  <JCHEM_DONOR_COUNT>
3

>  <JCHEM_FORMAL_CHARGE>
0

>  <JCHEM_GHOSE_FILTER>
1

>  <JCHEM_IUPAC>
4-[4-({[4-chloro-3-(trifluoromethyl)phenyl]carbamoyl}amino)phenoxy]-N-methylpyridine-2-carboxamide

>  <ALOGPS_LOGP>
4.12

>  <JCHEM_LOGP>
4.343329760666666

>  <ALOGPS_LOGS>
-5.43

>  <JCHEM_MDDR_LIKE_RULE>
1

>  <JCHEM_NEUTRAL_CHARGE>
0

>  <JCHEM_NUMBER_OF_RINGS>
3

>  <JCHEM_PHYSIOLOGICAL_CHARGE>
0

>  <JCHEM_PKA>
13.997061093666286

>  <JCHEM_PKA_STRONGEST_ACIDIC>
11.549797587623363

>  <JCHEM_PKA_STRONGEST_BASIC>
3.029916234990676

>  <JCHEM_POLAR_SURFACE_AREA>
92.35000000000001

>  <JCHEM_REFRACTIVITY>
114.51830000000001

>  <JCHEM_ROTATABLE_BOND_COUNT>
6

>  <JCHEM_RULE_OF_FIVE>
1

>  <ALOGPS_SOLUBILITY>
1.71e-03 g/l

>  <JCHEM_TRADITIONAL_IUPAC>
biotin

>  <JCHEM_VEBER_RULE>
0

>  <DRUGBANK_ID>
DB00398

>  <SECONDARY_ACCESSION_NUMBERS>
APRD01304; DB07438

>  <DRUG_GROUPS>
approved; investigational

>  <GENERIC_NAME>
Sorafenib

>  <SYNONYMS>
4-(4-((((4-Chloro-3-(trifluoromethyl)phenyl)amino)carbonyl)amino)phenoxy)-N-methyl-2-pyridinecarboxamide; N-(4-Chloro-3-(trifluoromethyl)phenyl)-N'-(4-(2-(N-methylcarbamoyl)-4-pyridyloxy)phenyl)urea; Sorafenib; Sorafénib; Sorafenibum

>  <PRODUCTS>
Apo-sorafenib; Nexavar; Sorafenib; Sorafenib Accord; Sorafenib Tosylate

>  <SALTS>
Sorafenib tosylate

$$$$
311
 OpenBabel05042401512D

 16 17  0  0  0  0  0  0  0  0999 V2000
    7.3097    0.0000    0.0000 S   0  0  0  0  0  0  0  0  0  0  0  0
    6.0031    0.6639    0.0000 S   0  0  0  0  0  0  0  0  0  0  0  0
    3.0791    0.8250    0.0000 O   0  0  0  0  0  0  0  0  0  0  0  0
    7.3097    0.8250    0.0000 O   0  0  0  0  0  0  0  0  0  0  0  0
    7.3097   -0.8250    0.0000 O   0  0  0  0  0  0  0  0  0  0  0  0
    6.0031   -0.6639    0.0000 N   0  0  0  0  0  0  0  0  0  0  0  0
    8.1347    0.0000    0.0000 N   0  0  0  0  0  0  0  0  0  0  0  0
    5.2224    0.4125    0.0000 C   0  0  0  0  0  0  0  0  0  0  0  0
    5.2224   -0.4125    0.0000 C   0  0  0  0  0  0  0  0  0  0  0  0
    6.4846    0.0000    0.0000 C   0  0  0  0  0  0  0  0  0  0  0  0
    4.5080    0.8250    0.0000 C   0  0  0  0  0  0  0  0  0  0  0  0
    3.7935    0.4125    0.0000 C   0  0  0  0  0  0  0  0  0  0  0  0
    4.5080   -0.8250    0.0000 C   0  0  0  0  0  0  0  0  0  0  0  0
    3.7935   -0.4125    0.0000 C   0  0  0  0  0  0  0  0  0  0  0  0
    2.3645    0.4125    0.0000 C   0  0  0  0  0  0  0  0  0  0  0  0
    1.6500    0.8250    0.0000 C   0  0  0  0  0  0  0  0  0  0  0  0
  1  4  2  0  0  0  0
  1  5  2  0  0  0  0
  1  7  1  0  0  0  0
  1 10  1  0  0  0  0
  2  8  1  0  0  0  0
  2 10  1  0  0  0  0
  3 12  1  0  0  0  0
  3 15  1  0  0  0  0
  6  9  1  0  0  0  0
  6 10  2  0  0  0  0
  8  9  2  0  0  0  0
  8 11  1  0  0  0  0
  9 13  1  0  0  0  0
 11 12  2  0  0  0  0
 12 14  1  0  0  0  0
 13 14  2  0  0  0  0
 15 16  1  0  0  0  0
M  END
>  <DATABASE_ID>
DB00311

>  <DATABASE_NAME>
drugbank

>  <SMILES>
CCOC1=CC2=C(C=C1)N=C(S2)S(N)(=O)=O

>  <INCHI_IDENTIFIER>
InChI=1S/C9H10N2O3S2/c1-2-14-6-3-4-7-8(5-6)15-9(11-7)16(10,12)13/h3-5H,2H2,1H3,(H2,10,12,13)

>  <INCHI_KEY>
OUZWUKMCLIBBOG-UHFFFAOYSA-N

>  <FORMULA>
C9H10N2O3S2

>  <MOLECULAR_WEIGHT>
258.317

>  <EXACT_MASS>
258.013283576

>  <JCHEM_ACCEPTOR_COUNT>
4

>  <JCHEM_ATOM_COUNT>
26

>  <JCHEM_AVERAGE_NEUTRAL_MICROSPECIES_CHARGE>
-0.23554767236553253

>  <JCHEM_AVERAGE_POLARIZABILITY>
25.269498813380597

>  <JCHEM_BIOAVAILABILITY>
1

>  <JCHEM_DONOR_COUNT>
1

>  <JCHEM_FORMAL_CHARGE>
0

>  <JCHEM_GHOSE_FILTER>
1

>  <JCHEM_IUPAC>
6-ethoxy-1,3-benzothiazole-2-sulfonamide

>  <ALOGPS_LOGP>
1.87

>  <JCHEM_LOGP>
1.6028892289999999

>  <ALOGPS_LOGS>
-2.57

>  <JCHEM_MDDR_LIKE_RULE>
0

>  <JCHEM_NEUTRAL_CHARGE>
0

>  <JCHEM_NUMBER_OF_RINGS>
2

>  <JCHEM_PHYSIOLOGICAL_CHARGE>
0

>  <JCHEM_PKA_STRONGEST_ACIDIC>
7.511271617325915

>  <JCHEM_PKA_STRONGEST_BASIC>
-1.931695920301212

>  <JCHEM_POLAR_SURFACE_AREA>
82.28

>  <JCHEM_REFRACTIVITY>
59.97170000000001

>  <JCHEM_ROTATABLE_BOND_COUNT>
3

>  <JCHEM_RULE_OF_FIVE>
1

>  <ALOGPS_SOLUBILITY>
6.88e-01 g/l

>  <JCHEM_TRADITIONAL_IUPAC>
biotin

>  <JCHEM_VEBER_RULE>
0

>  <DRUGBANK_ID>
DB00311

>  <SECONDARY_ACCESSION_NUMBERS>
APRD00732; DB07727

>  <DRUG_GROUPS>
withdrawn

>  <GENERIC_NAME>
Ethoxzolamide

>  <SYNONYMS>
6-Ethoxy-1,3-benzothiazole-2-sulfonamide; Ethoxazolamide; Ethoxyzolamide

>  <INTERNATIONAL_BRANDS>
Cardrase; Ethamide

$$$$

 OpenBabel05042401512D

 22 24  0  0  1  0  0  0  0  0999 V2000
   -0.7496   -0.8452    0.0000 C   0  0  0  0  0  0  0  0  0  0  0  0
    0.5200   -1.2577    0.0000 N   0  0  0  0  0  0  0  0  0  0  0  0
    0.6886   -0.0866    0.0000 O   0  0  0  0  0  0  0  0  0  0  0  0
   -0.7496   -1.6702    0.0000 C   0  0  0  0  0  0  0  0  0  0  0  0
   -1.4641   -0.4326    0.0000 C   0  0  0  0  0  0  0  0  0  0  0  0
    0.0350   -1.9252    0.0000 C   0  0  0  0  0  0  0  0  0  0  0  0
   -1.4641   -2.0828    0.0000 C   0  0  0  0  0  0  0  0  0  0  0  0
   -2.1786   -0.8452    0.0000 C   0  0  0  0  0  0  0  0  0  0  0  0
    0.2900   -2.7099    0.0000 O   0  0  0  0  0  0  0  0  0  0  0  0
   -2.1786   -1.6702    0.0000 C   0  0  0  0  0  0  0  0  0  0  0  0
    0.0350    0.2347    0.0000 C   0  0  0  0  0  0  0  0  0  0  0  0
    0.7495    0.6472    0.0000 C   0  0  0  0  0  0  0  0  0  0  0  0
   -0.6795    0.6472    0.0000 C   0  0  0  0  0  0  0  0  0  0  0  0
    0.7495    1.4723    0.0000 C   0  0  0  0  0  0  0  0  0  0  0  0
   -0.6795    1.4723    0.0000 C   0  0  0  0  0  0  0  0  0  0  0  0
    0.0350    1.8848    0.0000 C   0  0  0  0  0  0  0  0  0  0  0  0
    1.4640    1.8848    0.0000 S   0  0  0  0  0  0  0  0  0  0  0  0
    0.0350    2.7099    0.0000 Cl  0  0  0  0  0  0  0  0  0  0  0  0
    1.8765    1.1703    0.0000 O   0  0  0  0  0  0  0  0  0  0  0  0
    0.0350   -0.5902    0.0000 C   0  0  3  0  0  0  0  0  0  0  0  0
    2.1786    2.2974    0.0000 N   0  0  0  0  0  0  0  0  0  0  0  0
    1.0515    2.5994    0.0000 O   0  0  0  0  0  0  0  0  0  0  0  0
  1  4  1  0  0  0  0
  1  5  2  0  0  0  0
  2  6  1  0  0  0  0
  4  7  2  0  0  0  0
  4  6  1  0  0  0  0
  5  8  1  0  0  0  0
  6  9  2  0  0  0  0
  7 10  1  0  0  0  0
  8 10  2  0  0  0  0
 11 12  2  0  0  0  0
 11 13  1  0  0  0  0
 12 14  1  0  0  0  0
 13 15  2  0  0  0  0
 14 16  2  0  0  0  0
 14 17  1  0  0  0  0
 15 16  1  0  0  0  0
 16 18  1  0  0  0  0
 17 22  2  0  0  0  0
 17 19  2  0  0  0  0
 17 21  1  0  0  0  0
 20  1  1  0  0  0  0
 20  2  1  0  0  0  0
 20  3  1  0  0  0  0
 20 11  1  0  0  0  0
M  END
>  <DATABASE_ID>
DB00310

>  <DATABASE_NAME>
drugbank

>  <SMILES>
NS(=O)(=O)C1=C(Cl)C=CC(=C1)C1(O)NC(=O)C2=CC=CC=C12

>  <INCHI_IDENTIFIER>
InChI=1S/C14H11ClN2O4S/c15-11-6-5-8(7-12(11)22(16,20)21)14(19)10-4-2-1-3-9(10)13(18)17-14/h1-7,19H,(H,17,18)(H2,16,20,21)

>  <INCHI_KEY>
JIVPVXMEBJLZRO-UHFFFAOYSA-N

>  <FORMULA>
C14H11ClN2O4S

>  <MOLECULAR_WEIGHT>
338.766

>  <EXACT_MASS>
338.012805247

>  <JCHEM_ACCEPTOR_COUNT>
4

>  <JCHEM_ATOM_COUNT>
33

>  <JCHEM_AVERAGE_POLARIZABILITY>
31.2935952440563

>  <JCHEM_BIOAVAILABILITY>
1

>  <JCHEM_DONOR_COUNT>
3

>  <JCHEM_FORMAL_CHARGE>
0

>  <JCHEM_GHOSE_FILTER>
1

>  <JCHEM_IUPAC>
2-chloro-5-(1-hydroxy-3-oxo-2,3-dihydro-1H-isoindol-1-yl)benzene-1-sulfonamide

>  <ALOGPS_LOGP>
1.27

>  <JCHEM_LOGP>
1.6034210690000001

>  <ALOGPS_LOGS>
-3.81

>  <JCHEM_MDDR_LIKE_RULE>
0

>  <JCHEM_NUMBER_OF_RINGS>
3

>  <JCHEM_PHYSIOLOGICAL_CHARGE>
0

>  <JCHEM_PKA>
9.37161790987332

>  <JCHEM_PKA_STRONGEST_ACIDIC>
8.761804717435925

>  <JCHEM_PKA_STRONGEST_BASIC>
-2.5879178440175767

>  <JCHEM_POLAR_SURFACE_AREA>
109.49

>  <JCHEM_REFRACTIVITY>
81.30050000000001

>  <JCHEM_ROTATABLE_BOND_COUNT>
2

>  <JCHEM_RULE_OF_FIVE>
1

>  <ALOGPS_SOLUBILITY>
5.28e-02 g/l

>  <JCHEM_TRADITIONAL_IUPAC>
chlorthalidone

>  <JCHEM_VEBER_RULE>
0

>  <DRUGBANK_ID>
DB00310

>  <SECONDARY_ACCESSION_NUMBERS>
APRD00127

>  <DRUG_GROUPS>
approved

>  <GENERIC_NAME>
Chlorthalidone

>  <SYNONYMS>
1-keto-3-(3'-sulfamyl-4'-chlorophenyl)-3-hydroxyisoindoline; 1-oxo-3-(3-sulfamyl-4-chlorophenyl)-3-hydroxyisoindoline; 2-chloro-5-(1-hydroxy-3-oxo-1-isoindolinyl)benzenesulfonamide; 2-chloro-5-(2,3-dihydro-1-hydroxy-3-oxo-1H-isoindol-1-yl)benzenesulfonamide; 3-(4'-chloro-3'-sulfamoylphenyl)-3-hydroxyphthalimidine; 3-hydroxy-3-(4-chloro-3-sulfamylphenyl)phthalimidine; Chlorphthalidolone; Chlortalidone; Chlortalidonum; Chlorthalidone; Clortalidona; Phthalamodine; Phthalamudine

>  <PRODUCTS>
Aa-atenidone; Apo Chlorthalidone Tab 100mg; Apo-chlorthalidone; Atenolol and Chlorthalidone; Chlorthalidone; Chlorthalidone 100mg Tablets; Chlorthalidone 50mg Tablets; Chlorthalidone Chlorthalidone; Chlorthalidone Tab 100mg; Chlorthalidone Tab 50mg; Clorpres; Combipres 0.1/15 Tab; Edarbyclor; Hygroton 50mg; Jamp Chlorthalidone; Novo-thalidone Tab 100mg; Novo-thalidone Tab 50mg; Ntp-atenolol/chlorthalidone; Tenoretic; Tenoretic 100/25mg Tab; Tenoretic 50/25mg Tab; Teva-atenolol/chlorthalidone; Thalitone; Uridon Tab 100mg; Uridon Tab 50mg

>  <INTERNATIONAL_BRANDS>
Hygroton; Saluretin

$$$$

 OpenBabel05042401512D

 35 37  0  0  1  0  0  0  0  0999 V2000
   -3.2150    1.4351    0.0000 C   0  0  0  0  0  0  0  0  0  0  0  0
   -3.2161    2.2605    0.0000 N   0  0  0  0  0  0  0  0  0  0  0  0
   -1.7834    1.4389    0.0000 C   0  0  0  0  0  0  0  0  0  0  0  0
   -1.0676    1.0251    0.0000 C   0  0  0  0  0  0  0  0  0  0  0  0
   -0.3529    1.4408    0.0000 C   0  0  0  0  0  0  0  0  0  0  0  0
    0.3587    1.0270    0.0000 C   0  0  1  0  0  0  0  0  0  0  0  0
    1.0734    1.4426    0.0000 C   0  0  0  0  0  0  0  0  0  0  0  0
    1.7892    1.0289    0.0000 N   0  0  0  0  0  0  0  0  0  0  0  0
    1.0723    2.2679    0.0000 O   0  0  0  0  0  0  0  0  0  0  0  0
    1.7846    0.2056    0.0000 C   0  0  0  0  0  0  0  0  0  0  0  0
    2.4962   -0.2038    0.0000 C   0  0  0  0  0  0  0  0  0  0  0  0
    3.2133    0.2041    0.0000 C   0  0  2  0  0  0  0  0  0  0  0  0
    3.2142    1.0303    0.0000 C   0  0  0  0  0  0  0  0  0  0  0  0
    2.4979    1.4485    0.0000 C   0  0  2  0  0  0  0  0  0  0  0  0
    2.4955    2.2738    0.0000 C   0  0  0  0  0  0  0  0  0  0  0  0
    3.2095    2.6864    0.0000 O   0  0  0  0  0  0  0  0  0  0  0  0
    3.9276   -0.2082    0.0000 C   0  0  0  0  0  0  0  0  0  0  0  0
   -0.3505   -0.2141    0.0000 S   0  0  0  0  0  0  0  0  0  0  0  0
   -0.3494   -1.0392    0.0000 C   0  0  0  0  0  0  0  0  0  0  0  0
   -0.7727    0.5047    0.0000 O   0  0  0  0  0  0  0  0  0  0  0  0
   -1.1792   -0.2086    0.0000 O   0  0  0  0  0  0  0  0  0  0  0  0
   -1.0654   -1.4522    0.0000 C   0  0  0  0  0  0  0  0  0  0  0  0
   -1.0647   -2.2766    0.0000 C   0  0  0  0  0  0  0  0  0  0  0  0
   -0.3484   -2.6869    0.0000 C   0  0  0  0  0  0  0  0  0  0  0  0
    0.3603   -1.4479    0.0000 C   0  0  0  0  0  0  0  0  0  0  0  0
    0.3633   -2.2694    0.0000 C   0  0  0  0  0  0  0  0  0  0  0  0
    1.0731   -2.6732    0.0000 C   0  0  0  0  0  0  0  0  0  0  0  0
    1.7841   -2.2640    0.0000 C   0  0  3  0  0  0  0  0  0  0  0  0
    1.7809   -1.4424    0.0000 C   0  0  0  0  0  0  0  0  0  0  0  0
    2.5003   -2.6728    0.0000 C   0  0  0  0  0  0  0  0  0  0  0  0
   -2.4981    1.0268    0.0000 N   0  0  0  0  0  0  0  0  0  0  0  0
   -3.9276    1.0242    0.0000 N   0  0  0  0  0  0  0  0  0  0  0  0
    1.7812    2.6869    0.0000 O   0  0  0  0  0  0  0  0  0  0  0  0
    0.3619    0.2019    0.0000 N   0  0  0  0  0  0  0  0  0  0  0  0
    1.0689   -1.0255    0.0000 N   0  0  0  0  0  0  0  0  0  0  0  0
  1  2  2  0  0  0  0
  1 32  1  0  0  0  0
  3  4  1  0  0  0  0
  4  5  1  0  0  0  0
  6  5  1  1  0  0  0
  6  7  1  0  0  0  0
  6 34  1  0  0  0  0
  7  8  1  0  0  0  0
  7  9  2  0  0  0  0
  8 10  1  0  0  0  0
  8 14  1  0  0  0  0
 10 11  1  0  0  0  0
 11 12  1  0  0  0  0
 12 13  1  0  0  0  0
 12 17  1  6  0  0  0
 13 14  1  0  0  0  0
 14 15  1  1  0  0  0
 15 16  2  0  0  0  0
 15 33  1  0  0  0  0
 18 19  1  0  0  0  0
 18 20  2  0  0  0  0
 18 21  2  0  0  0  0
 19 22  2  0  0  0  0
 22 23  1  0  0  0  0
 23 24  2  0  0  0  0
 24 26  1  0  0  0  0
 25 19  1  0  0  0  0
 25 26  2  0  0  0  0
 25 35  1  0  0  0  0
 26 27  1  0  0  0  0
 27 28  1  0  0  0  0
 28 29  1  0  0  0  0
 28 30  1  0  0  0  0
 29 35  1  0  0  0  0
 31  1  1  0  0  0  0
 31  3  1  0  0  0  0
 34 18  1  0  0  0  0
M  END
>  <DATABASE_ID>
DB00278

>  <DATABASE_NAME>
drugbank

>  <SMILES>
C[C@@H]1CCN([C@H](C1)C(O)=O)C(=O)[C@H](CCCNC(N)=N)NS(=O)(=O)C1=CC=CC2=C1NCC(C)C2

>  <INCHI_IDENTIFIER>
InChI=1S/C23H36N6O5S/c1-14-8-10-29(18(12-14)22(31)32)21(30)17(6-4-9-26-23(24)25)28-35(33,34)19-7-3-5-16-11-15(2)13-27-20(16)19/h3,5,7,14-15,17-18,27-28H,4,6,8-13H2,1-2H3,(H,31,32)(H4,24,25,26)/t14-,15?,17+,18-/m1/s1

>  <INCHI_KEY>
KXNPVXPOPUZYGB-IOVMHBDKSA-N

>  <FORMULA>
C23H36N6O5S

>  <MOLECULAR_WEIGHT>
508.64

>  <EXACT_MASS>
508.246789457

>  <JCHEM_ACCEPTOR_COUNT>
9

>  <JCHEM_ATOM_COUNT>
71

>  <JCHEM_AVERAGE_POLARIZABILITY>
53.76611568355927

>  <JCHEM_BIOAVAILABILITY>
0

>  <JCHEM_DONOR_COUNT>
6

>  <JCHEM_FORMAL_CHARGE>
0

>  <JCHEM_GHOSE_FILTER>
0

>  <JCHEM_IUPAC>
(2R,4R)-1-[(2S)-5-carbamimidamido-2-(3-methyl-1,2,3,4-tetrahydroquinoline-8-sulfonamido)pentanoyl]-4-methylpiperidine-2-carboxylic acid

>  <ALOGPS_LOGP>
0.04

>  <JCHEM_LOGP>
-0.9157009266637468

>  <ALOGPS_LOGS>
-3.48

>  <JCHEM_MDDR_LIKE_RULE>
1

>  <JCHEM_NUMBER_OF_RINGS>
3

>  <JCHEM_PHYSIOLOGICAL_CHARGE>
0

>  <JCHEM_PKA>
10.456666798999187

>  <JCHEM_PKA_STRONGEST_ACIDIC>
3.057996750282412

>  <JCHEM_PKA_STRONGEST_BASIC>
11.80276670948689

>  <JCHEM_POLAR_SURFACE_AREA>
177.71

>  <JCHEM_REFRACTIVITY>
143.82900000000004

>  <JCHEM_ROTATABLE_BOND_COUNT>
8

>  <JCHEM_RULE_OF_FIVE>
0

>  <ALOGPS_SOLUBILITY>
1.68e-01 g/l

>  <JCHEM_TRADITIONAL_IUPAC>
argatroban

>  <JCHEM_VEBER_RULE>
0

>  <DRUGBANK_ID>
DB00278

>  <SECONDARY_ACCESSION_NUMBERS>
APRD00105

>  <DRUG_GROUPS>
approved; investigational

>  <GENERIC_NAME>
Argatroban

>  <SYNONYMS>
Argatroban; Argatroban anhydrous

>  <PRODUCTS>
Argatroban

>  <SALTS>
Argatroban monohydrate

$$$$

 OpenBabel05042401512D

 12 11  0  0  1  0  0  0  0  0999 V2000
    2.1434    1.0312    0.0000 O   0  0  0  0  0  0  0  0  0  0  0  0
    2.1434    0.2062    0.0000 C   0  0  0  0  0  0  0  0  0  0  0  0
    2.8579   -0.2062    0.0000 O   0  0  0  0  0  0  0  0  0  0  0  0
    1.4290   -0.2062    0.0000 C   0  0  1  0  0  0  0  0  0  0  0  0
    1.4290   -1.0312    0.0000 N   0  0  0  0  0  0  0  0  0  0  0  0
    0.7145    0.2062    0.0000 C   0  0  0  0  0  0  0  0  0  0  0  0
    0.0000   -0.2062    0.0000 C   0  0  0  0  0  0  0  0  0  0  0  0
   -0.7143    0.2062    0.0000 C   0  0  0  0  0  0  0  0  0  0  0  0
   -1.4288   -0.2062    0.0000 N   0  0  0  0  0  0  0  0  0  0  0  0
   -2.1433    0.2062    0.0000 C   0  0  0  0  0  0  0  0  0  0  0  0
   -2.1433    1.0312    0.0000 N   0  0  0  0  0  0  0  0  0  0  0  0
   -2.8579   -0.2062    0.0000 N   0  0  0  0  0  0  0  0  0  0  0  0
  2  1  2  0  0  0  0
  3  2  1  0  0  0  0
  4  2  1  1  0  0  0
  4  5  1  0  0  0  0
  6  4  1  0  0  0  0
  7  6  1  0  0  0  0
  7  8  1  0  0  0  0
  9  8  1  0  0  0  0
 10  9  1  0  0  0  0
 11 10  2  0  0  0  0
 12 10  1  0  0  0  0
M  END
>  <DATABASE_ID>
DB00125

>  <DATABASE_NAME>
drugbank

>  <SMILES>
N[C@@H](CCCNC(N)=N)C(O)=O

>  <INCHI_IDENTIFIER>
InChI=1S/C6H14N4O2/c7-4(5(11)12)2-1-3-10-6(8)9/h4H,1-3,7H2,(H,11,12)(H4,8,9,10)/t4-/m0/s1

>  <INCHI_KEY>
ODKSFYDXXFIFQN-BYPYZUCNSA-N

>  <FORMULA>
C6H14N4O2

>  <MOLECULAR_WEIGHT>
174.201

>  <EXACT_MASS>
174.111675712

>  <JCHEM_ACCEPTOR_COUNT>
6

>  <JCHEM_ATOM_COUNT>
26

>  <JCHEM_AVERAGE_POLARIZABILITY>
17.798401776145056

>  <JCHEM_BIOAVAILABILITY>
1

>  <JCHEM_DONOR_COUNT>
5

>  <JCHEM_FORMAL_CHARGE>
0

>  <JCHEM_GHOSE_FILTER>
0

>  <JCHEM_IUPAC>
(2S)-2-amino-5-carbamimidamidopentanoic acid

>  <ALOGPS_LOGP>
-3.49

>  <JCHEM_LOGP>
-3.1559373774200568

>  <ALOGPS_LOGS>
-1.88

>  <JCHEM_MDDR_LIKE_RULE>
0

>  <JCHEM_NUMBER_OF_RINGS>
0

>  <JCHEM_PHYSIOLOGICAL_CHARGE>
1

>  <JCHEM_PKA_STRONGEST_ACIDIC>
2.4118378885304885

>  <JCHEM_PKA_STRONGEST_BASIC>
12.41100429474531

>  <JCHEM_POLAR_SURFACE_AREA>
125.21999999999998

>  <JCHEM_REFRACTIVITY>
53.9231

>  <JCHEM_ROTATABLE_BOND_COUNT>
5

>  <JCHEM_RULE_OF_FIVE>
1

>  <ALOGPS_SOLUBILITY>
2.28e+00 g/l

>  <JCHEM_TRADITIONAL_IUPAC>
tigecycline

>  <JCHEM_VEBER_RULE>
0

>  <DRUGBANK_ID>
DB00125

>  <SECONDARY_ACCESSION_NUMBERS>
NUTR00014

>  <DRUG_GROUPS>
investigational; nutraceutical

>  <GENERIC_NAME>
Arginine

>  <SYNONYMS>
(2S)-2-amino-5-(carbamimidamido)pentanoic acid; (2S)-2-amino-5-guanidinopentanoic acid; (S)-2-amino-5-guanidinopentanoic acid; (S)-2-Amino-5-guanidinovaleric acid; Arg; Arginina; Arginine; L-(+)-Arginine; L-Arg; L-Arginin; L-arginine; R

>  <PRODUCTS>
2.5% Travasol Amino Acid Injection With Electrolytes In 10% Dextrose; 2.5% Travasol Amino Acid Injection With Electrolytes In 10% Dextrose Clinimix; 2.5% Travasol Amino Acid Injection Without Electrolytes In 10% Dextrose Quickmix; 2.5%travasol Amino Acid InJ.W.eleC.W.25%dex; 2.75% Travas. Amino Acid InJ.W.elecw.25%dex; 2.75% Travasol Amino Acid Injection With Electrolytes In 25% Dextrose Quickmix; 2.75% Travasol Amino Acid Injection With Electrolytes In 5% Dextrose Quickmix; 2.75%travasol Amino Acid InJ.W.eleC.W.5%dex.; 20% Prosol; 4.25% Amino Acid Injection Without Electrolytes In 20% Dextrose Quickmix; 4.25% Travasol Amino Acid Injection With Electrolytes In 10% Dextrose; 4.25% Travasol Amino Acid Injection With Electrolytes In 20% Dextrose; 4.25% Travasol Amino Acid Injection With Electrolytes In 20% Dextrose Quickmix; 4.25% Travasol Amino Acid Injection With Electrolytes In 25% Dextrose; 4.25% Travasol Amino Acid Injection With Electrolytes In 5% Dextrose Quickmix; 4.25% Travasol Amino Acid Injection Without Electrlytes In 10% Dextrose; 4.25% Travasol Amino Acid Injection Without Electrolytes In 20% Dextrose; 4.25% Travasol Amino Acid Injection Without Electrolytes In 25% Dextrose; 4.25% Travasol Amino Acid Without Electrolytes In 5% Dextrose Quickmix; 4.25%trav. Amino Acid InJ.W.O.elect.5%dext.; 4.25%travasol Amino Acid InJ.W.elecw.5%dex.; 5% Travasol Amino Acid Injection With Electrolytes In 20% Dextrose; 5% Travasol Amino Acid Injection Without Electrolytes In 20% Dextrose; 5% Travasol Amino Acid Injection Without Electrolytes In 25% Dextrose; 8.5% Freamine III; Aminosyn; Aminosyn 10% W Electrolytes; Aminosyn 3.5% M; Aminosyn 5%; Aminosyn 7%; Aminosyn 8.5%; Aminosyn 8.5% Injection With Electrolytes; Aminosyn HF; Aminosyn II; Aminosyn II 10% With Electrolytes; Aminosyn II 5% Inj; Aminosyn II 7% Injection; Aminosyn II 7% M In 10% Dextrose(dual Chamber); Aminosyn II 7% With 10% Dextrose; Aminosyn II 7% With 50% Dextrose; Aminosyn II 8.5% Injection; Aminosyn II 8.5% M In 20% Dextrose (dual Chamber); Aminosyn II 8.5% With 50% Dextrose; Aminosyn II In Dextrose Injection; Aminosyn II and Dextrose; Aminosyn II in Dextrose; Aminosyn II with Electrolytes; Aminosyn II with Electrolytes in Dextrose with Calcium; Aminosyn RF; Aminosyn RF Injection; Aminosyn Sulfite Free; Aminosyn-PF; Aminosyn-PF 10%; Aminosyn-PF 7%; Arginine; Cardiotek-RX; Clinimix; Clinimix 2.5% Travasol Aa Without Electrolytes In 10% Dextrose Injec; Clinimix E; Clinisol; Cream; Essepna; FreAmine HBC; FreAmine III; HepatAmine; Hepatasol; Hypertenevide-12.5; Hypertenipine; Hypertensolol; Kabiven; L-arginine Hydrochloride Injection; Lysakare; Lytensopril; Lytensopril-90; Moisture Cushion; Novamine; Nutrineal Pd4; Olimel 3.3% E; Olimel 4.4%; Olimel 4.4% E; Olimel 5.7% E; Perikabiven; Periolimel 2.5% E; Plenamine; Premasol - sulfite-free (Amino Acid); Primene; Primene 10%; Primene 10%-liq IV; ProSol; ProcalAmine; Quick Mix 2.5% Travasol Aa With Electrolytes With 25% Dextrose Injec; R-Gene; RenAmin; Renamin (amino Acids) Injection; Repair Vaginal; Rimantalist; Smofkabiven; Smofkabiven Electrolyte Free; Smofkabiven Extra Nitrogen; Smofkabiven Extra Nitrogen Electrolyte Free; Smofkabiven Peripheral; Synthamin; Travasol; Travasol Amino Acid Inj 5.5%; Travasol Amino Acid Inj 8.5%; Travasol E; Travasol Inj Without Electrolytes 5.5%; Travasol Inj Without Electrolytes 8.5%; TrophAmine; Vamin 18 Electrolyte-free; Vamin N; tensioSAN

>  <INTERNATIONAL_BRANDS>
R-Gene 10

>  <SALTS>
Arginine butyrate; Arginine hydrochloride

$$$$
