
  Mrv1909 02152322502D          

 44 50  0  0  1  0            999 V2000
    5.6595   -3.3481    0.0000 C   0  0  0  0  0  0  0  0  0  0  0  0
    5.8310   -4.1551    0.0000 C   0  0  0  0  0  0  0  0  0  0  0  0
    6.6156   -4.4100    0.0000 N   0  0  0  0  0  0  0  0  0  0  0  0
    7.2831   -3.9251    0.0000 C   0  0  2  0  0  0  0  0  0  0  0  0
    7.9505   -4.4100    0.0000 C   0  0  2  0  0  0  0  0  0  0  0  0
    8.7351   -4.1551    0.0000 C   0  0  0  0  0  0  0  0  0  0  0  0
    9.3482   -4.7071    0.0000 C   0  0  0  0  0  0  0  0  0  0  0  0
   10.1329   -4.4522    0.0000 C   0  0  0  0  0  0  0  0  0  0  0  0
   10.3044   -3.6452    0.0000 C   0  0  0  0  0  0  0  0  0  0  0  0
    9.6913   -3.0932    0.0000 C   0  0  0  0  0  0  0  0  0  0  0  0
    9.8628   -2.2862    0.0000 Cl  0  0  0  0  0  0  0  0  0  0  0  0
    8.9067   -3.3481    0.0000 C   0  0  0  0  0  0  0  0  0  0  0  0
    8.2936   -2.7961    0.0000 F   0  0  0  0  0  0  0  0  0  0  0  0
    7.6956   -5.1947    0.0000 C   0  0  1  0  0  0  0  0  0  0  0  0
    8.5206   -5.1947    0.0000 C   0  0  0  0  0  0  0  0  0  0  0  0
    9.3456   -5.1947    0.0000 O   0  0  0  0  0  0  0  0  0  0  0  0
    8.7755   -5.9793    0.0000 N   0  0  0  0  0  0  0  0  0  0  0  0
    8.1081   -6.4642    0.0000 C   0  0  0  0  0  0  0  0  0  0  0  0
    8.0218   -7.2847    0.0000 C   0  0  0  0  0  0  0  0  0  0  0  0
    7.2682   -7.6202    0.0000 C   0  0  0  0  0  0  0  0  0  0  0  0
    7.1819   -8.4407    0.0000 Cl  0  0  0  0  0  0  0  0  0  0  0  0
    6.6007   -7.1353    0.0000 C   0  0  0  0  0  0  0  0  0  0  0  0
    6.6870   -6.3148    0.0000 C   0  0  0  0  0  0  0  0  0  0  0  0
    7.5496   -6.0211    0.0000 C   0  0  0  0  0  0  0  0  0  0  0  0
    6.8706   -5.1947    0.0000 C   0  0  0  0  0  0  0  0  0  0  0  0
    7.2061   -5.9483    0.0000 C   0  0  0  0  0  0  0  0  0  0  0  0
    6.7212   -6.6158    0.0000 C   0  0  0  0  0  0  0  0  0  0  0  0
    5.9007   -6.5295    0.0000 C   0  0  0  0  0  0  0  0  0  0  0  0
    5.5652   -5.7759    0.0000 C   0  0  0  0  0  0  0  0  0  0  0  0
    6.0501   -5.1084    0.0000 C   0  0  0  0  0  0  0  0  0  0  0  0
    7.2831   -3.1001    0.0000 C   0  0  0  0  0  0  0  0  0  0  0  0
    7.9976   -2.6876    0.0000 O   0  0  0  0  0  0  0  0  0  0  0  0
    6.5686   -2.6876    0.0000 N   0  0  0  0  0  0  0  0  0  0  0  0
    6.5686   -1.8626    0.0000 C   0  0  0  0  0  0  0  0  0  0  0  0
    5.8541   -1.4501    0.0000 C   0  0  0  0  0  0  0  0  0  0  0  0
    5.8541   -0.6251    0.0000 C   0  0  0  0  0  0  0  0  0  0  0  0
    6.5686   -0.2126    0.0000 C   0  0  0  0  0  0  0  0  0  0  0  0
    7.2831   -0.6251    0.0000 C   0  0  0  0  0  0  0  0  0  0  0  0
    7.2831   -1.4501    0.0000 C   0  0  0  0  0  0  0  0  0  0  0  0
    6.7061   -0.7626    0.0000 C   0  0  0  0  0  0  0  0  0  0  0  0
    6.7061   -1.3126    0.0000 C   0  0  0  0  0  0  0  0  0  0  0  0
    6.5686    0.6124    0.0000 C   0  0  0  0  0  0  0  0  0  0  0  0
    5.8541    1.0249    0.0000 O   0  0  0  0  0  0  0  0  0  0  0  0
    7.2831    1.0249    0.0000 O   0  0  0  0  0  0  0  0  0  0  0  0
  1  2  1  0  0  0  0
  2  3  1  0  0  0  0
  4  3  1  0  0  0  0
  5  4  1  0  0  0  0
  5  6  1  6  0  0  0
  6  7  2  0  0  0  0
  7  8  1  0  0  0  0
  8  9  2  0  0  0  0
  9 10  1  0  0  0  0
 10 11  1  0  0  0  0
 10 12  2  0  0  0  0
  6 12  1  0  0  0  0
 12 13  1  0  0  0  0
  5 14  1  0  0  0  0
 14 15  1  6  0  0  0
 15 16  2  0  0  0  0
 15 17  1  0  0  0  0
 17 18  1  0  0  0  0
 18 19  2  0  0  0  0
 19 20  1  0  0  0  0
 20 21  1  0  0  0  0
 20 22  2  0  0  0  0
 22 23  1  0  0  0  0
 23 24  2  0  0  0  0
 14 24  1  0  0  0  0
 18 24  1  0  0  0  0
 14 25  1  0  0  0  0
  3 25  1  0  0  0  0
 25 26  1  0  0  0  0
 26 27  1  0  0  0  0
 27 28  1  0  0  0  0
 28 29  1  0  0  0  0
 29 30  1  0  0  0  0
 25 30  1  0  0  0  0
  4 31  1  1  0  0  0
 31 32  2  0  0  0  0
 31 33  1  0  0  0  0
 33 34  1  0  0  0  0
 34 35  1  0  0  0  0
 35 36  1  0  0  0  0
 36 37  1  0  0  0  0
 37 38  1  0  0  0  0
 38 39  1  0  0  0  0
 34 39  1  0  0  0  0
 37 40  1  0  0  0  0
 40 41  1  0  0  0  0
 34 41  1  0  0  0  0
 37 42  1  0  0  0  0
 42 43  1  0  0  0  0
 42 44  2  0  0  0  0
M  END
> <DATABASE_ID>
DB17549

> <DATABASE_NAME>
drugbank

> <SMILES>
CCN1[C@H]([C@H](C2=CC=CC(Cl)=C2F)[C@]2(C(=O)NC3=CC(Cl)=CC=C23)C11CCCCC1)C(=O)NC12CCC(CC1)(CC2)C(O)=O

> <INCHI_IDENTIFIER>
InChI=1S/C34H38Cl2FN3O4/c1-2-40-27(28(41)39-32-16-13-31(14-17-32,15-18-32)30(43)44)25(21-7-6-8-23(36)26(21)37)34(33(40)11-4-3-5-12-33)22-10-9-20(35)19-24(22)38-29(34)42/h6-10,19,25,27H,2-5,11-18H2,1H3,(H,38,42)(H,39,41)(H,43,44)/t25-,27+,31?,32?,34+/m0/s1

> <INCHI_KEY>
YJCZPJQGFSSFOL-MNZPCBJKSA-N

> <FORMULA>
C34H38Cl2FN3O4

> <MOLECULAR_WEIGHT>
642.59

> <EXACT_MASS>
641.2223403

> <JCHEM_ACCEPTOR_COUNT>
5

> <JCHEM_ATOM_COUNT>
82

> <JCHEM_AVERAGE_NEUTRAL_MICROSPECIES_CHARGE>
-0.03600198677354972

> <JCHEM_AVERAGE_POLARIZABILITY>
66.0124193051333

> <JCHEM_BIOAVAILABILITY>
1

> <JCHEM_DONOR_COUNT>
3

> <JCHEM_FORMAL_CHARGE>
0

> <JCHEM_GHOSE_FILTER>
0

> <JCHEM_IUPAC>
4-{[(3'R,4'S,5'R)-6''-chloro-4'-(3-chloro-2-fluorophenyl)-1'-ethyl-2''-oxo-1'',2''-dihydrodispiro[cyclohexane-1,2'-pyrrolidine-3',3''-indol]-5'-yl]amido}bicyclo[2.2.2]octane-1-carboxylic acid

> <ALOGPS_LOGP>
4.63

> <JCHEM_LOGP>
3.904743721595219

> <ALOGPS_LOGS>
-5.70

> <JCHEM_MDDR_LIKE_RULE>
0

> <JCHEM_NEUTRAL_CHARGE>
0

> <JCHEM_NUMBER_OF_RINGS>
7

> <JCHEM_PHYSIOLOGICAL_CHARGE>
0

> <JCHEM_PKA>
12.870174436736207

> <JCHEM_PKA_STRONGEST_ACIDIC>
3.6873740054156636

> <JCHEM_PKA_STRONGEST_BASIC>
8.415745451217095

> <JCHEM_POLAR_SURFACE_AREA>
98.74000000000001

> <JCHEM_REFRACTIVITY>
167.5382

> <JCHEM_ROTATABLE_BOND_COUNT>
5

> <JCHEM_RULE_OF_FIVE>
0

> <ALOGPS_SOLUBILITY>
1.28e-03 g/l

> <JCHEM_TRADITIONAL_IUPAC>
6-{[6-(4-aminobenzenesulfonamido)pyridin-3-yl]oxy}-3,4,5-trihydroxyoxane-2-carboxylic acid

> <JCHEM_VEBER_RULE>
0

> <DRUGBANK_ID>
DB17549

> <DRUG_GROUPS>
investigational

> <GENERIC_NAME>
Alrizomadlin

> <SYNONYMS>
(3'r,4's,5'r)-4-((6-chloro-2-oxo-1,2-dihydro-spiro(indole-3,3'-pyrrolidin)e-4'-(3-chloro-2-fluoro -phenyl)-1'-ethyl-spiro(cyclohexane-1,2'-pyrrolidine)-5'-carbonyl)-amino)-bicyclo(2.2.2)octane-1-carboxylic acid; 4-((3'R,4'S,5'R)-6''-chloro-4'-(3-chloro-2-fluorophenyl)-1'-ethyl-2''-oxodispiro[cyclohexane-1,2'-pyrrolidine-3',3''-indoline]-5'-carboxamido)bicyclo [2.2.2]octane-1-carboxylic acid; Bicyclo(2.2.2)octane-1-carboxylic acid, 4-((((3'r,4's,5'r)-6''-chloro-4'-(3-chloro-2-fluorophenyl)-1'-ethyl-1'',2''-dihydro-2''-oxodispiro(cyclohexane-1,2'-pyrrolidine-3',3''-(3h)indol)-5'-yl)carbonyl)amino)-

$$$$
