
  Mrv1909 04252320492D          

 30 33  0  0  0  0            999 V2000
    0.8236   -7.9546    0.0000 F   0  0  0  0  0  0  0  0  0  0  0  0
    0.3387   -7.2871    0.0000 C   0  0  0  0  0  0  0  0  0  0  0  0
   -0.4818   -7.3734    0.0000 C   0  0  0  0  0  0  0  0  0  0  0  0
   -0.9667   -6.7059    0.0000 C   0  0  0  0  0  0  0  0  0  0  0  0
   -0.6312   -5.9522    0.0000 C   0  0  0  0  0  0  0  0  0  0  0  0
    0.1893   -5.8660    0.0000 N   0  0  0  0  0  0  0  0  0  0  0  0
    0.6742   -6.5335    0.0000 C   0  0  0  0  0  0  0  0  0  0  0  0
    1.4947   -6.4472    0.0000 C   0  0  0  0  0  0  0  0  0  0  0  0
    1.8303   -5.6935    0.0000 N   0  0  0  0  0  0  0  0  0  0  0  0
    2.6507   -5.6073    0.0000 C   0  0  0  0  0  0  0  0  0  0  0  0
    3.1357   -6.2747    0.0000 O   0  0  0  0  0  0  0  0  0  0  0  0
    2.9863   -4.8536    0.0000 C   0  0  0  0  0  0  0  0  0  0  0  0
    2.5738   -4.1392    0.0000 C   0  0  0  0  0  0  0  0  0  0  0  0
    3.1258   -3.5261    0.0000 O   0  0  0  0  0  0  0  0  0  0  0  0
    3.8795   -3.8616    0.0000 C   0  0  0  0  0  0  0  0  0  0  0  0
    4.5940   -3.4491    0.0000 C   0  0  0  0  0  0  0  0  0  0  0  0
    5.3084   -3.8616    0.0000 C   0  0  0  0  0  0  0  0  0  0  0  0
    6.0229   -3.4491    0.0000 N   0  0  0  0  0  0  0  0  0  0  0  0
    6.7374   -3.8616    0.0000 C   0  0  0  0  0  0  0  0  0  0  0  0
    7.4519   -3.4491    0.0000 C   0  0  0  0  0  0  0  0  0  0  0  0
    8.1663   -3.8616    0.0000 C   0  0  0  0  0  0  0  0  0  0  0  0
    8.9200   -3.5261    0.0000 N   0  0  0  0  0  0  0  0  0  0  0  0
    9.4720   -4.1392    0.0000 C   0  0  0  0  0  0  0  0  0  0  0  0
   10.2970   -4.1392    0.0000 C   0  0  0  0  0  0  0  0  0  0  0  0
   10.7095   -4.8536    0.0000 C   0  0  0  0  0  0  0  0  0  0  0  0
   10.2970   -5.5681    0.0000 C   0  0  0  0  0  0  0  0  0  0  0  0
    9.4720   -5.5681    0.0000 C   0  0  0  0  0  0  0  0  0  0  0  0
    9.0595   -4.8536    0.0000 C   0  0  0  0  0  0  0  0  0  0  0  0
    8.2526   -4.6821    0.0000 N   0  0  0  0  0  0  0  0  0  0  0  0
    3.7933   -4.6821    0.0000 N   0  0  0  0  0  0  0  0  0  0  0  0
  1  2  1  0  0  0  0
  2  3  2  0  0  0  0
  3  4  1  0  0  0  0
  4  5  2  0  0  0  0
  5  6  1  0  0  0  0
  6  7  2  0  0  0  0
  2  7  1  0  0  0  0
  7  8  1  0  0  0  0
  8  9  1  0  0  0  0
  9 10  1  0  0  0  0
 10 11  2  0  0  0  0
 10 12  1  0  0  0  0
 12 13  2  0  0  0  0
 13 14  1  0  0  0  0
 14 15  1  0  0  0  0
 15 16  1  0  0  0  0
 16 17  1  0  0  0  0
 17 18  1  0  0  0  0
 18 19  1  0  0  0  0
 19 20  1  0  0  0  0
 20 21  1  0  0  0  0
 21 22  2  0  0  0  0
 22 23  1  0  0  0  0
 23 24  2  0  0  0  0
 24 25  1  0  0  0  0
 25 26  2  0  0  0  0
 26 27  1  0  0  0  0
 27 28  2  0  0  0  0
 23 28  1  0  0  0  0
 28 29  1  0  0  0  0
 21 29  1  0  0  0  0
 15 30  2  0  0  0  0
 12 30  1  0  0  0  0
M  END
> <DATABASE_ID>
DB17692

> <DATABASE_NAME>
drugbank

> <SMILES>
FC1=CC=CN=C1CNC(=O)C1=COC(CCNCCC2=NC3=CC=CC=C3N2)=N1

> <INCHI_IDENTIFIER>
InChI=1S/C21H21FN6O2/c22-14-4-3-9-24-17(14)12-25-21(29)18-13-30-20(28-18)8-11-23-10-7-19-26-15-5-1-2-6-16(15)27-19/h1-6,9,13,23H,7-8,10-12H2,(H,25,29)(H,26,27)

> <INCHI_KEY>
KNYVRFXIVWUGBZ-UHFFFAOYSA-N

> <FORMULA>
C21H21FN6O2

> <MOLECULAR_WEIGHT>
408.437

> <EXACT_MASS>
408.171002103

> <JCHEM_ACCEPTOR_COUNT>
5

> <JCHEM_ATOM_COUNT>
51

> <JCHEM_AVERAGE_NEUTRAL_MICROSPECIES_CHARGE>
3.2030951307240945

> <JCHEM_AVERAGE_POLARIZABILITY>
43.14267558594054

> <JCHEM_BIOAVAILABILITY>
1

> <JCHEM_DONOR_COUNT>
3

> <JCHEM_FORMAL_CHARGE>
0

> <JCHEM_GHOSE_FILTER>
1

> <JCHEM_IUPAC>
2-(2-{[2-(1H-1,3-benzodiazol-2-yl)ethyl]amino}ethyl)-N-[(3-fluoropyridin-2-yl)methyl]-1,3-oxazole-4-carboxamide

> <JCHEM_LOGP>
1.2957169099999999

> <JCHEM_MDDR_LIKE_RULE>
1

> <JCHEM_NEUTRAL_CHARGE>
1

> <JCHEM_NUMBER_OF_RINGS>
4

> <JCHEM_PHYSIOLOGICAL_CHARGE>
1

> <JCHEM_POLAR_SURFACE_AREA>
108.73

> <JCHEM_REFRACTIVITY>
107.34430000000002

> <JCHEM_ROTATABLE_BOND_COUNT>
9

> <JCHEM_RULE_OF_FIVE>
1

> <JCHEM_TRADITIONAL_IUPAC>
2-(2-{[2-(1H-1,3-benzodiazol-2-yl)ethyl]amino}ethyl)-N-[(3-fluoropyridin-2-yl)methyl]-1,3-oxazole-4-carboxamide

> <JCHEM_VEBER_RULE>
0

> <DRUGBANK_ID>
DB17692

> <DRUG_GROUPS>
investigational

> <GENERIC_NAME>
Vamifeport

> <SYNONYMS>
2-(2-((2-(1h-benzimidazol-2-yl)ethyl)amino)ethyl)-n-((3-fluoropyridin-2-yl)methyl)-1,3-oxazole-4-carboxamide; 4-oxazolecarboxamide, 2-(2-((2-(1h-benzimidazol-2-yl)ethyl)amino)ethyl)-n-((3-fluoro-2-pyridinyl)methyl)-

> <SALTS>
Vamifeport hydrochloride

$$$$
