
  Mrv2304 09082317312D          

 44 46  0  0  1  0            999 V2000
   14.5572  -10.8662    0.0000 C   0  0  0  0  0  0  0  0  0  0  0  0
   13.8470  -11.2860    0.0000 C   0  0  0  0  0  0  0  0  0  0  0  0
   14.3387  -11.9484    0.0000 C   0  0  0  0  0  0  0  0  0  0  0  0
   14.0109  -12.7055    0.0000 C   0  0  0  0  0  0  0  0  0  0  0  0
   14.5026  -13.3679    0.0000 O   0  0  0  0  0  0  0  0  0  0  0  0
   13.1913  -12.8001    0.0000 C   0  0  0  0  0  0  0  0  0  0  0  0
   12.6996  -12.1377    0.0000 C   0  0  0  0  0  0  0  0  0  0  0  0
   11.8800  -12.2323    0.0000 C   0  0  0  0  0  0  0  0  0  0  0  0
   13.0274  -11.3806    0.0000 C   0  0  0  0  0  0  0  0  0  0  0  0
   12.5357  -10.7182    0.0000 C   0  0  0  0  0  0  0  0  0  0  0  0
   12.8635   -9.9611    0.0000 C   0  0  2  0  0  0  0  0  0  0  0  0
   12.3718   -9.2986    0.0000 N   0  0  0  0  0  0  0  0  0  0  0  0
   11.5522   -9.3933    0.0000 C   0  0  0  0  0  0  0  0  0  0  0  0
   11.2244  -10.1504    0.0000 O   0  0  0  0  0  0  0  0  0  0  0  0
   11.0605   -8.7308    0.0000 C   0  0  2  0  0  0  0  0  0  0  0  0
   11.3883   -7.9738    0.0000 N   0  0  0  0  0  0  0  0  0  0  0  0
   10.2409   -8.8255    0.0000 C   0  0  0  0  0  0  0  0  0  0  0  0
    9.7492   -8.1630    0.0000 C   0  0  0  0  0  0  0  0  0  0  0  0
    8.9296   -8.2577    0.0000 C   0  0  0  0  0  0  0  0  0  0  0  0
    8.4379   -7.5952    0.0000 N   0  0  0  0  0  0  0  0  0  0  0  0
    7.6183   -7.6899    0.0000 C   0  0  0  0  0  0  0  0  0  0  0  0
    7.1266   -7.0274    0.0000 N   0  0  0  0  0  0  0  0  0  0  0  0
    7.2905   -8.4469    0.0000 N   0  0  0  0  0  0  0  0  0  0  0  0
   13.6830   -9.8665    0.0000 C   0  0  0  0  0  0  0  0  0  0  0  0
   14.0109   -9.1094    0.0000 O   0  0  0  0  0  0  0  0  0  0  0  0
   14.1748  -10.5289    0.0000 N   0  0  0  0  0  0  0  0  0  0  0  0
   14.9943  -10.4343    0.0000 C   0  0  1  0  0  0  0  0  0  0  0  0
   15.3222   -9.6772    0.0000 C   0  0  0  0  0  0  0  0  0  0  0  0
   14.8304   -9.0147    0.0000 C   0  0  0  0  0  0  0  0  0  0  0  0
   15.1582   -8.2577    0.0000 C   0  0  0  0  0  0  0  0  0  0  0  0
   14.6665   -7.5952    0.0000 C   0  0  0  0  0  0  0  0  0  0  0  0
   14.9943   -6.8382    0.0000 N   0  0  0  0  0  0  0  0  0  0  0  0
   15.4861  -11.0967    0.0000 C   0  0  0  0  0  0  0  0  0  0  0  0
   16.3110  -11.0882    0.0000 N   0  0  0  0  0  0  0  0  0  0  0  0
   16.5740  -11.8702    0.0000 C   0  0  0  0  0  0  0  0  0  0  0  0
   17.3612  -12.1171    0.0000 C   0  0  0  0  0  0  0  0  0  0  0  0
   17.5410  -12.9223    0.0000 C   0  0  0  0  0  0  0  0  0  0  0  0
   18.3281  -13.1692    0.0000 C   0  0  0  0  0  0  0  0  0  0  0  0
   18.5079  -13.9743    0.0000 C   0  0  0  0  0  0  0  0  0  0  0  0
   17.9005  -14.5326    0.0000 C   0  0  0  0  0  0  0  0  0  0  0  0
   17.1133  -14.2857    0.0000 C   0  0  0  0  0  0  0  0  0  0  0  0
   16.9335  -13.4806    0.0000 C   0  0  0  0  0  0  0  0  0  0  0  0
   15.9115  -12.3619    0.0000 N   0  0  0  0  0  0  0  0  0  0  0  0
   15.2392  -11.8839    0.0000 O   0  0  0  0  0  0  0  0  0  0  0  0
  1  2  1  0  0  0  0
  2  3  2  0  0  0  0
  3  4  1  0  0  0  0
  4  5  1  0  0  0  0
  4  6  2  0  0  0  0
  6  7  1  0  0  0  0
  7  8  1  0  0  0  0
  7  9  2  0  0  0  0
  2  9  1  0  0  0  0
  9 10  1  0  0  0  0
 11 10  1  0  0  0  0
 11 12  1  6  0  0  0
 12 13  1  0  0  0  0
 13 14  2  0  0  0  0
 15 13  1  0  0  0  0
 15 16  1  1  0  0  0
 15 17  1  0  0  0  0
 17 18  1  0  0  0  0
 18 19  1  0  0  0  0
 19 20  1  0  0  0  0
 20 21  1  0  0  0  0
 21 22  1  0  0  0  0
 21 23  2  0  0  0  0
 11 24  1  0  0  0  0
 24 25  2  0  0  0  0
 24 26  1  0  0  0  0
 27 26  1  1  0  0  0
 27 28  1  0  0  0  0
 28 29  1  0  0  0  0
 29 30  1  0  0  0  0
 30 31  1  0  0  0  0
 31 32  1  0  0  0  0
 27 33  1  0  0  0  0
 33 34  2  0  0  0  0
 34 35  1  0  0  0  0
 35 36  1  0  0  0  0
 36 37  1  0  0  0  0
 37 38  2  0  0  0  0
 38 39  1  0  0  0  0
 39 40  2  0  0  0  0
 40 41  1  0  0  0  0
 41 42  2  0  0  0  0
 37 42  1  0  0  0  0
 35 43  2  0  0  0  0
 43 44  1  0  0  0  0
 33 44  1  0  0  0  0
M  END
> <DATABASE_ID>
DB18037

> <DATABASE_NAME>
drugbank

> <SMILES>
CC1=CC(O)=CC(C)=C1C[C@H](NC(=O)[C@H](N)CCCNC(N)=N)C(=O)N[C@@H](CCCCN)C1=NC(CC2=CC=CC=C2)=NO1

> <INCHI_IDENTIFIER>
InChI=1S/C31H45N9O4/c1-19-15-22(41)16-20(2)23(19)18-26(38-28(42)24(33)11-8-14-36-31(34)35)29(43)37-25(12-6-7-13-32)30-39-27(40-44-30)17-21-9-4-3-5-10-21/h3-5,9-10,15-16,24-26,41H,6-8,11-14,17-18,32-33H2,1-2H3,(H,37,43)(H,38,42)(H4,34,35,36)/t24-,25+,26+/m1/s1

> <INCHI_KEY>
XEYINAAYNXIXPY-ZNZIZOMTSA-N

> <FORMULA>
C31H45N9O4

> <MOLECULAR_WEIGHT>
607.76

> <EXACT_MASS>
607.359450965

> <JCHEM_ACCEPTOR_COUNT>
10

> <JCHEM_ATOM_COUNT>
89

> <JCHEM_AVERAGE_NEUTRAL_MICROSPECIES_CHARGE>
4.849805668495024

> <JCHEM_AVERAGE_POLARIZABILITY>
66.5765044690778

> <JCHEM_BIOAVAILABILITY>
0

> <JCHEM_DONOR_COUNT>
8

> <JCHEM_FORMAL_CHARGE>
0

> <JCHEM_GHOSE_FILTER>
0

> <JCHEM_IUPAC>
(2R)-2-amino-N-[(1S)-1-{[(1S)-5-amino-1-(3-benzyl-1,2,4-oxadiazol-5-yl)pentyl]carbamoyl}-2-(4-hydroxy-2,6-dimethylphenyl)ethyl]-5-carbamimidamidopentanamide

> <JCHEM_LOGP>
1.8483507697495183

> <JCHEM_MDDR_LIKE_RULE>
1

> <JCHEM_NEUTRAL_CHARGE>
3

> <JCHEM_NUMBER_OF_RINGS>
3

> <JCHEM_PHYSIOLOGICAL_CHARGE>
3

> <JCHEM_PKA>
12.494279893540616

> <JCHEM_PKA_STRONGEST_ACIDIC>
9.618329143508491

> <JCHEM_PKA_STRONGEST_BASIC>
11.89304324004004

> <JCHEM_POLAR_SURFACE_AREA>
231.28999999999996

> <JCHEM_REFRACTIVITY>
180.32979999999995

> <JCHEM_ROTATABLE_BOND_COUNT>
17

> <JCHEM_RULE_OF_FIVE>
0

> <JCHEM_TRADITIONAL_IUPAC>
(2R)-2-amino-N-[(1S)-1-{[(1S)-5-amino-1-(3-benzyl-1,2,4-oxadiazol-5-yl)pentyl]carbamoyl}-2-(4-hydroxy-2,6-dimethylphenyl)ethyl]-5-carbamimidamidopentanamide

> <JCHEM_VEBER_RULE>
0

> <DRUGBANK_ID>
DB18037

> <DRUG_GROUPS>
investigational

> <GENERIC_NAME>
SBT-272

$$$$
