
  Mrv2304 09082317302D          

 30 32  0  0  0  0            999 V2000
   -3.5479    2.0202    0.0000 N   0  0  0  0  0  0  0  0  0  0  0  0
   -2.8334    2.4327    0.0000 C   0  0  0  0  0  0  0  0  0  0  0  0
   -2.8334    3.2577    0.0000 N   0  0  0  0  0  0  0  0  0  0  0  0
   -2.1190    2.0202    0.0000 N   0  0  0  0  0  0  0  0  0  0  0  0
   -1.4045    2.4327    0.0000 C   0  0  0  0  0  0  0  0  0  0  0  0
   -1.4045    3.2577    0.0000 C   0  0  0  0  0  0  0  0  0  0  0  0
   -0.6900    3.6702    0.0000 C   0  0  0  0  0  0  0  0  0  0  0  0
    0.0244    3.2577    0.0000 C   0  0  0  0  0  0  0  0  0  0  0  0
    0.8091    3.5126    0.0000 C   0  0  0  0  0  0  0  0  0  0  0  0
    1.2940    2.8452    0.0000 N   0  0  0  0  0  0  0  0  0  0  0  0
    2.1190    2.8452    0.0000 C   0  0  0  0  0  0  0  0  0  0  0  0
    2.5315    2.1307    0.0000 C   0  0  0  0  0  0  0  0  0  0  0  0
    3.3565    2.1307    0.0000 C   0  0  0  0  0  0  0  0  0  0  0  0
    3.7690    2.8452    0.0000 O   0  0  0  0  0  0  0  0  0  0  0  0
    3.7690    1.4162    0.0000 N   0  0  0  0  0  0  0  0  0  0  0  0
    4.5940    1.4162    0.0000 C   0  0  0  0  0  0  0  0  0  0  0  0
    5.0065    2.1307    0.0000 C   0  0  0  0  0  0  0  0  0  0  0  0
    4.5940    2.8452    0.0000 C   0  0  0  0  0  0  0  0  0  0  0  0
    3.9265    3.3301    0.0000 O   0  0  0  0  0  0  0  0  0  0  0  0
    5.0065    3.5596    0.0000 O   0  0  0  0  0  0  0  0  0  0  0  0
    5.0065    0.7018    0.0000 C   0  0  0  0  0  0  0  0  0  0  0  0
    5.8315    0.7018    0.0000 C   0  0  0  0  0  0  0  0  0  0  0  0
    6.2440   -0.0127    0.0000 C   0  0  0  0  0  0  0  0  0  0  0  0
    5.8315   -0.7272    0.0000 C   0  0  0  0  0  0  0  0  0  0  0  0
    5.0065   -0.7272    0.0000 N   0  0  0  0  0  0  0  0  0  0  0  0
    4.5940   -0.0127    0.0000 C   0  0  0  0  0  0  0  0  0  0  0  0
    0.8091    2.1777    0.0000 C   0  0  0  0  0  0  0  0  0  0  0  0
    1.0640    1.3931    0.0000 O   0  0  0  0  0  0  0  0  0  0  0  0
    0.0244    2.4327    0.0000 C   0  0  0  0  0  0  0  0  0  0  0  0
   -0.6900    2.0202    0.0000 C   0  0  0  0  0  0  0  0  0  0  0  0
  1  2  1  0  0  0  0
  2  3  2  0  0  0  0
  2  4  1  0  0  0  0
  4  5  1  0  0  0  0
  5  6  2  0  0  0  0
  6  7  1  0  0  0  0
  7  8  2  0  0  0  0
  8  9  1  0  0  0  0
  9 10  1  0  0  0  0
 10 11  1  0  0  0  0
 11 12  1  0  0  0  0
 12 13  1  0  0  0  0
 13 14  2  0  0  0  0
 13 15  1  0  0  0  0
 15 16  1  0  0  0  0
 16 17  1  0  0  0  0
 17 18  1  0  0  0  0
 18 19  1  0  0  0  0
 18 20  2  0  0  0  0
 16 21  1  0  0  0  0
 21 22  2  0  0  0  0
 22 23  1  0  0  0  0
 23 24  2  0  0  0  0
 24 25  1  0  0  0  0
 25 26  2  0  0  0  0
 21 26  1  0  0  0  0
 10 27  1  0  0  0  0
 27 28  2  0  0  0  0
 27 29  1  0  0  0  0
  8 29  1  0  0  0  0
 29 30  2  0  0  0  0
  5 30  1  0  0  0  0
M  END
> <DATABASE_ID>
DB18036

> <DATABASE_NAME>
drugbank

> <SMILES>
NC(=N)NC1=CC=C2CN(CCC(=O)NC(CC(O)=O)C3=CC=CN=C3)C(=O)C2=C1

> <INCHI_IDENTIFIER>
InChI=1S/C20H22N6O4/c21-20(22)24-14-4-3-13-11-26(19(30)15(13)8-14)7-5-17(27)25-16(9-18(28)29)12-2-1-6-23-10-12/h1-4,6,8,10,16H,5,7,9,11H2,(H,25,27)(H,28,29)(H4,21,22,24)

> <INCHI_KEY>
QYJPVUKVHBUFLH-UHFFFAOYSA-N

> <FORMULA>
C20H22N6O4

> <MOLECULAR_WEIGHT>
410.434

> <EXACT_MASS>
410.170253212

> <JCHEM_ACCEPTOR_COUNT>
8

> <JCHEM_ATOM_COUNT>
52

> <JCHEM_AVERAGE_NEUTRAL_MICROSPECIES_CHARGE>
3.7293407326678114

> <JCHEM_AVERAGE_POLARIZABILITY>
42.11975580599365

> <JCHEM_BIOAVAILABILITY>
1

> <JCHEM_DONOR_COUNT>
5

> <JCHEM_FORMAL_CHARGE>
0

> <JCHEM_GHOSE_FILTER>
0

> <JCHEM_IUPAC>
3-[3-(6-carbamimidamido-1-oxo-2,3-dihydro-1H-isoindol-2-yl)propanamido]-3-(pyridin-3-yl)propanoic acid

> <JCHEM_LOGP>
-2.238670134032498

> <JCHEM_MDDR_LIKE_RULE>
1

> <JCHEM_NEUTRAL_CHARGE>
0

> <JCHEM_NUMBER_OF_RINGS>
3

> <JCHEM_PHYSIOLOGICAL_CHARGE>
0

> <JCHEM_PKA>
13.746444198119468

> <JCHEM_PKA_STRONGEST_ACIDIC>
3.485968988521375

> <JCHEM_PKA_STRONGEST_BASIC>
9.632349066427471

> <JCHEM_POLAR_SURFACE_AREA>
161.5

> <JCHEM_REFRACTIVITY>
120.03099999999998

> <JCHEM_ROTATABLE_BOND_COUNT>
8

> <JCHEM_RULE_OF_FIVE>
1

> <JCHEM_TRADITIONAL_IUPAC>
3-[3-(6-carbamimidamido-1-oxo-3H-isoindol-2-yl)propanamido]-3-(pyridin-3-yl)propanoic acid

> <JCHEM_VEBER_RULE>
0

> <DRUGBANK_ID>
DB18036

> <DRUG_GROUPS>
investigational

> <GENERIC_NAME>
3-(3-(6-Guanidino-1-oxoisoindolin-2yl)propanamido)-3-(pyridine-3yl)propanoic acid

> <SALTS>
3-(3-(6-Guanidino-1-oxoisoindolin-2yl)propanamido)-3-(pyridine-3yl)propanoic acid dihydrochloride

$$$$
