
  Mrv2304 09282315312D          

 30 27  0  0  0  0            999 V2000
    0.4125    0.0000    0.0000 O   0  0  0  0  0  0  0  0  0  0  0  0
   -0.4125    0.0000    0.0000 Re  0  1  0  0  0  0  0  0  0  0  0  0
    3.0397   -1.6036    0.0000 C   0  0  0  0  0  0  0  0  0  0  0  0
    3.8498   -1.4477    0.0000 C   0  0  0  0  0  0  0  0  0  0  0  0
    4.1199   -0.6682    0.0000 N   0  0  0  0  0  0  0  0  0  0  0  0
    3.5798   -0.0445    0.0000 C   0  0  0  0  0  0  0  0  0  0  0  0
    2.7696   -0.2005    0.0000 C   0  0  0  0  0  0  0  0  0  0  0  0
    4.9300   -0.5123    0.0000 C   0  0  0  0  0  0  0  0  0  0  0  0
    5.2000    0.2673    0.0000 C   0  0  0  0  0  0  0  0  0  0  0  0
    6.0102    0.4232    0.0000 N   0  0  0  0  0  0  0  0  0  0  0  0
    6.2802    1.2027    0.0000 C   0  0  0  0  0  0  0  0  0  0  0  0
    7.0904    1.3586    0.0000 C   0  0  0  0  0  0  0  0  0  0  0  0
    7.3604    2.1382    0.0000 S   0  0  0  0  0  0  0  0  0  0  0  0
    6.5503   -0.2005    0.0000 C   0  0  0  0  0  0  0  0  0  0  0  0
    7.3604   -0.0445    0.0000 C   0  0  0  0  0  0  0  0  0  0  0  0
    7.9005   -0.6682    0.0000 S   0  5  0  0  0  0  0  0  0  0  0  0
   -2.3918   -6.9955    0.0000 C   0  0  0  0  0  0  0  0  0  0  0  0
   -1.5817   -6.8396    0.0000 C   0  0  0  0  0  0  0  0  0  0  0  0
   -1.3116   -6.0600    0.0000 N   0  0  0  0  0  0  0  0  0  0  0  0
   -1.8517   -5.4364    0.0000 C   0  0  0  0  0  0  0  0  0  0  0  0
   -2.6619   -5.5923    0.0000 C   0  0  0  0  0  0  0  0  0  0  0  0
   -0.5015   -5.9041    0.0000 C   0  0  0  0  0  0  0  0  0  0  0  0
   -0.2315   -5.1246    0.0000 C   0  0  0  0  0  0  0  0  0  0  0  0
    0.5787   -4.9687    0.0000 N   0  0  0  0  0  0  0  0  0  0  0  0
    0.8487   -4.1891    0.0000 C   0  0  0  0  0  0  0  0  0  0  0  0
    1.6588   -4.0332    0.0000 C   0  0  0  0  0  0  0  0  0  0  0  0
    1.9289   -3.2536    0.0000 S   0  5  0  0  0  0  0  0  0  0  0  0
    1.1188   -5.5923    0.0000 C   0  0  0  0  0  0  0  0  0  0  0  0
    1.9289   -5.4364    0.0000 C   0  0  0  0  0  0  0  0  0  0  0  0
    2.4690   -6.0600    0.0000 S   0  5  0  0  0  0  0  0  0  0  0  0
  1  2  2  0  0  0  0
  3  4  1  0  0  0  0
  4  5  1  0  0  0  0
  5  6  1  0  0  0  0
  6  7  1  0  0  0  0
  5  8  1  0  0  0  0
  8  9  1  0  0  0  0
  9 10  1  0  0  0  0
 10 11  1  0  0  0  0
 11 12  1  0  0  0  0
 12 13  1  0  0  0  0
 10 14  1  0  0  0  0
 14 15  1  0  0  0  0
 15 16  1  0  0  0  0
 17 18  1  0  0  0  0
 18 19  1  0  0  0  0
 19 20  1  0  0  0  0
 20 21  1  0  0  0  0
 19 22  1  0  0  0  0
 22 23  1  0  0  0  0
 23 24  1  0  0  0  0
 24 25  1  0  0  0  0
 25 26  1  0  0  0  0
 26 27  1  0  0  0  0
 24 28  1  0  0  0  0
 28 29  1  0  0  0  0
 29 30  1  0  0  0  0
M  CHG  4   2   3  16  -1  27  -1  30  -1
M  ISO  1   2 186
M  END
> <DATABASE_ID>
DB18523

> <DATABASE_NAME>
drugbank

> <SMILES>
O=[186Re+3].CCN(CC)CCN(CCS)CC[S-].CCN(CC)CCN(CC[S-])CC[S-]

> <INCHI_IDENTIFIER>
InChI=1S/2C10H24N2S2.O.Re/c2*1-3-11(4-2)5-6-12(7-9-13)8-10-14;;/h2*13-14H,3-10H2,1-2H3;;/q;;;+3/p-3/i;;;1+0

> <INCHI_KEY>
WGNFIJYHYDDFMP-LDYDCSBASA-K

> <FORMULA>
C20H45N4OReS4

> <MOLECULAR_WEIGHT>
671.8

> <EXACT_MASS>
671.20260831

> <JCHEM_ACCEPTOR_COUNT>
2

> <JCHEM_ATOM_COUNT>
75

> <JCHEM_AVERAGE_NEUTRAL_MICROSPECIES_CHARGE>
1.9999963410272064

> <JCHEM_AVERAGE_POLARIZABILITY>
28.807202339902766

> <JCHEM_BIOAVAILABILITY>
0

> <JCHEM_DONOR_COUNT>
1

> <JCHEM_FORMAL_CHARGE>
0

> <JCHEM_GHOSE_FILTER>
0

> <JCHEM_IUPAC>
(2-{[2-(diethylamino)ethyl](2-sulfanidylethyl)amino}ethyl)sulfanide; (2-{[2-(diethylamino)ethyl](2-sulfanylethyl)amino}ethyl)sulfanide; oxo(186Re)rheniumtris(ylium)

> <JCHEM_LOGP>
0.9484158429636613

> <JCHEM_MDDR_LIKE_RULE>
0

> <JCHEM_NEUTRAL_CHARGE>
3

> <JCHEM_NUMBER_OF_RINGS>
0

> <JCHEM_PHYSIOLOGICAL_CHARGE>
3

> <JCHEM_PKA>
9.611918379519372

> <JCHEM_PKA_STRONGEST_ACIDIC>
8.073113807043313

> <JCHEM_PKA_STRONGEST_BASIC>
8.593773811572428

> <JCHEM_POLAR_SURFACE_AREA>
6.48

> <JCHEM_REFRACTIVITY>
73.19640000000001

> <JCHEM_ROTATABLE_BOND_COUNT>
18

> <JCHEM_RULE_OF_FIVE>
0

> <JCHEM_TRADITIONAL_IUPAC>
(2-{[2-(diethylamino)ethyl](2-sulfanidylethyl)amino}ethyl)sulfanide; (2-{[2-(diethylamino)ethyl](2-sulfanylethyl)amino}ethyl)sulfanide; oxo(186Re)rheniumtris(ylium)

> <JCHEM_VEBER_RULE>
0

> <DRUGBANK_ID>
DB18523

> <DRUG_GROUPS>
investigational

> <GENERIC_NAME>
Rhenium (186-Re) obisbemeda

> <SYNONYMS>
Rhenium (186re) obisbemeda

$$$$
